@<TRIPOS>MOLECULE
*****
 40 42 0 0 0
SMALL
GASTEIGER

@<TRIPOS>ATOM
      1 C         140.0732  142.6522  160.6332 C.3     1  UNL1        0.1518
      2 C         139.8936  142.5704  159.1462 C.3     1  UNL1        0.0310
      3 C         141.1808  142.9893  158.5000 C.3     1  UNL1        0.0237
      4 C         142.1560  143.3300  159.5877 C.3     1  UNL1        0.0939
      5 N         141.4715  143.1218  160.9060 N.am    1  UNL1       -0.2730
      6 C         142.0786  143.3440  162.2595 C.2     1  UNL1        0.2273
      7 O         141.2673  143.0923  163.4959 O.2     1  UNL1       -0.2748
      8 N         139.1815  141.0889  162.5069 N.am    1  UNL1       -0.2991
      9 C         139.0365  142.3225  161.6660 C.2     1  UNL1        0.2408
     10 O         137.8550  143.2264  161.8579 O.2     1  UNL1       -0.2733
     11 H         139.9571  140.4956  162.3810 H       1  UNL1        0.1498
     12 C         138.1449  140.7591  163.5397 C.3     1  UNL1        0.1164
     13 C         139.3585  140.1430  167.8289 C.ar    1  UNL1        0.1389
     14 C         138.4669  139.1453  167.1511 C.ar    1  UNL1        0.0366
     15 C         138.0623  139.3507  165.7213 C.ar    1  UNL1        0.0005
     16 C         138.5495  140.5537  164.9694 C.ar    1  UNL1       -0.0024
     17 C         139.4411  141.5514  165.6473 C.ar    1  UNL1        0.0005
     18 C         139.8456  141.3461  167.0771 C.ar    1  UNL1        0.0366
     19 O         139.7630  139.9377  169.2587 O.3     1  UNL1       -0.4736
     20 C         140.8180  140.8097  169.8723 C.3     1  UNL1        0.2017
     21 C         142.6713  139.0362  169.4603 C.3     1  UNL1        0.0041
     22 C         142.2675  140.4587  169.7125 C.3     1  UNL1        0.0456
     23 C         143.3133  141.5300  169.8050 C.3     1  UNL1        0.0041
     24 C         140.4234  142.0329  170.6458 C.2     1  UNL1        0.0900
     25 O         139.8997  143.2396  169.9248 O.co2   1  UNL1       -0.5455
     26 O         140.5524  142.0494  172.1401 O.co2   1  UNL1       -0.5455
     27 C         143.4969  143.8178  162.3767 C.3     1  UNL1        0.1010
     28 C         144.6017  142.8292  162.6044 C.3     1  UNL1        0.0644
     29 N         145.5730  142.5231  161.5031 N.3     1  UNL1       -0.3215
     30 H         145.3348  143.0724  160.6773 H       1  UNL1        0.1188
     31 H         145.5272  141.5299  161.2756 H       1  UNL1        0.1188
     32 C         144.7352  142.1465  163.9334 C.3     1  UNL1        0.0447
     33 C         143.9563  140.8961  164.2159 C.ar    1  UNL1        0.0088
     34 C         143.8572  139.8226  163.1728 C.ar    1  UNL1        0.0276
     35 C         143.0783  138.5722  163.4553 C.ar    1  UNL1        0.1400
     36 F         142.9791  137.4987  162.4123 F       1  UNL1       -0.2042
     37 C         142.3986  138.3952  164.7807 C.ar    1  UNL1        0.0319
     38 C         142.4978  139.4687  165.8237 C.ar    1  UNL1        0.0316
     39 C         143.2767  140.7192  165.5413 C.ar    1  UNL1        0.1363
     40 F         143.3759  141.7927  166.5843 F       1  UNL1       -0.2045
@<TRIPOS>UNITY_ATOM_ATTR
25 1
charge -1
@<TRIPOS>BOND
     1    21    22    1
     2    22    23    1
     3    22    20    1
     4    20    19    1
     5    19    13    1
     6    13    14   ar
     7    14    15   ar
     8    15    16   ar
     9    16    12    1
    10    12     8    1
    11     8     9   am
    12     9    10    2
    13     1     9    1
    14     1     2    1
    15     2     3    1
    16     3     4    1
    17     4     5    1
    18     5     6   am
    19     6     7    2
    20     6    27    1
    21    27    28    1
    22    28    29    1
    23    28    32    1
    24    32    33    1
    25    33    34   ar
    26    34    35   ar
    27    35    36    1
    28    35    37   ar
    29    37    38   ar
    30    38    39   ar
    31    39    40    1
    32    16    17   ar
    33    17    18   ar
    34    20    24    1
    35    24    25   ar
    36    24    26   ar
    37    18    13   ar
    38     5     1    1
    39    39    33   ar
    40     8    11    1
    41    29    30    1
    42    29    31    1
@<TRIPOS>MOLECULE
*****
 40 42 0 0 0
SMALL
GASTEIGER

@<TRIPOS>ATOM
      1 C         140.0339  140.6902  160.3265 C.3     1  UNL1        0.1518
      2 C         140.3541  140.7976  158.8650 C.3     1  UNL1        0.0310
      3 C         139.7756  142.0851  158.3572 C.3     1  UNL1        0.0237
      4 C         139.0980  142.7733  159.5050 C.3     1  UNL1        0.0939
      5 N         139.2577  141.9112  160.7220 N.am    1  UNL1       -0.2730
      6 C         138.7331  142.2166  162.0937 C.2     1  UNL1        0.2273
      7 O         138.9718  141.2542  163.2194 O.2     1  UNL1       -0.2748
      8 N         141.4474  139.7776  162.3063 N.am    1  UNL1       -0.2991
      9 C         140.4220  139.5600  161.2334 C.2     1  UNL1        0.2408
     10 O         139.7847  138.2124  161.0672 O.2     1  UNL1       -0.2733
     11 H         141.8657  140.6621  162.4154 H       1  UNL1        0.1498
     12 C         141.8355  138.6475  163.2131 C.3     1  UNL1        0.1164
     13 C         142.0862  139.3126  167.6566 C.ar    1  UNL1        0.1389
     14 C         143.2778  138.7941  166.9075 C.ar    1  UNL1        0.0366
     15 C         143.1942  138.5724  165.4263 C.ar    1  UNL1        0.0005
     16 C         141.9191  138.8692  164.6943 C.ar    1  UNL1       -0.0024
     17 C         140.7275  139.3878  165.4434 C.ar    1  UNL1        0.0005
     18 C         140.8111  139.6095  166.9246 C.ar    1  UNL1        0.0366
     19 O         142.1698  139.5344  169.1378 O.3     1  UNL1       -0.4736
     20 C         141.5069  140.7296  169.7558 C.3     1  UNL1        0.2017
     21 C         140.9010  143.1842  169.1576 C.3     1  UNL1        0.0041
     22 C         141.9310  142.1121  169.3573 C.3     1  UNL1        0.0456
     23 C         143.3850  142.4225  169.1584 C.3     1  UNL1        0.0041
     24 C         140.4199  140.5423  170.7724 C.2     1  UNL1        0.0900
     25 O         139.1681  139.8025  170.4043 O.co2   1  UNL1       -0.5455
     26 O         140.5848  141.0949  172.1571 O.co2   1  UNL1       -0.5455
     27 C         137.9699  143.4841  162.3399 C.3     1  UNL1        0.1010
     28 C         138.6966  144.7281  162.7576 C.3     1  UNL1        0.0644
     29 N         138.8279  145.8767  161.8018 N.3     1  UNL1       -0.3215
     30 H         138.3684  145.6412  160.9222 H       1  UNL1        0.1188
     31 H         139.8156  146.0646  161.6298 H       1  UNL1        0.1188
     32 C         139.2919  144.8235  164.1312 C.3     1  UNL1        0.0447
     33 C         140.6901  144.3397  164.3779 C.ar    1  UNL1        0.0088
     34 C         141.8404  144.9665  163.6471 C.ar    1  UNL1        0.0276
     35 C         143.2387  144.4827  163.8938 C.ar    1  UNL1        0.1400
     36 F         144.3890  145.1095  163.1631 F       1  UNL1       -0.2042
     37 C         143.4866  143.3722  164.8712 C.ar    1  UNL1        0.0319
     38 C         142.3363  142.7454  165.6018 C.ar    1  UNL1        0.0316
     39 C         140.9380  143.2292  165.3552 C.ar    1  UNL1        0.1363
     40 F         139.7876  142.6024  166.0859 F       1  UNL1       -0.2045
@<TRIPOS>UNITY_ATOM_ATTR
25 1
charge -1
@<TRIPOS>BOND
     1    21    22    1
     2    22    23    1
     3    22    20    1
     4    20    19    1
     5    19    13    1
     6    13    14   ar
     7    14    15   ar
     8    15    16   ar
     9    16    12    1
    10    12     8    1
    11     8     9   am
    12     9    10    2
    13     1     9    1
    14     1     2    1
    15     2     3    1
    16     3     4    1
    17     4     5    1
    18     5     6   am
    19     6     7    2
    20     6    27    1
    21    27    28    1
    22    28    29    1
    23    28    32    1
    24    32    33    1
    25    33    34   ar
    26    34    35   ar
    27    35    36    1
    28    35    37   ar
    29    37    38   ar
    30    38    39   ar
    31    39    40    1
    32    16    17   ar
    33    17    18   ar
    34    20    24    1
    35    24    25   ar
    36    24    26   ar
    37    18    13   ar
    38     5     1    1
    39    39    33   ar
    40     8    11    1
    41    29    30    1
    42    29    31    1
@<TRIPOS>MOLECULE
*****
 40 42 0 0 0
SMALL
GASTEIGER

@<TRIPOS>ATOM
      1 C         142.2119  139.3685  160.1326 C.3     1  UNL1        0.1518
      2 C         142.6789  139.0010  158.7553 C.3     1  UNL1        0.0310
      3 C         143.6864  140.0232  158.3194 C.3     1  UNL1        0.0237
      4 C         143.8421  141.0223  159.4273 C.3     1  UNL1        0.0939
      5 N         142.9308  140.6177  160.5479 N.am    1  UNL1       -0.2730
      6 C         142.7672  141.3362  161.8544 C.2     1  UNL1        0.2273
      7 O         141.8128  140.8101  162.8852 O.2     1  UNL1       -0.2748
      8 N         139.8019  139.1392  161.0759 N.am    1  UNL1       -0.2991
      9 C         141.2030  138.6183  160.9509 C.2     1  UNL1        0.2408
     10 O         141.5952  137.3473  161.6442 O.2     1  UNL1       -0.2733
     11 H         139.5445  139.9734  160.6209 H       1  UNL1        0.1498
     12 C         138.7931  138.3891  161.8941 C.3     1  UNL1        0.1164
     13 C         138.5207  139.0950  166.3301 C.ar    1  UNL1        0.1389
     14 C         138.0716  140.1586  165.3724 C.ar    1  UNL1        0.0366
     15 C         138.1624  139.9233  163.8938 C.ar    1  UNL1        0.0005
     16 C         138.7023  138.6244  163.3728 C.ar    1  UNL1       -0.0024
     17 C         139.1514  137.5609  164.3304 C.ar    1  UNL1        0.0005
     18 C         139.0606  137.7962  165.8091 C.ar    1  UNL1        0.0366
     19 O         138.4299  139.3303  167.8087 O.3     1  UNL1       -0.4736
     20 C         139.4697  140.1605  168.5013 C.3     1  UNL1        0.2017
     21 C         140.6211  142.0295  167.1117 C.3     1  UNL1        0.0041
     22 C         140.6569  140.6664  167.7368 C.3     1  UNL1        0.0456
     23 C         141.8800  139.8093  167.5974 C.3     1  UNL1        0.0041
     24 C         139.3222  140.4848  169.9584 C.2     1  UNL1        0.0900
     25 O         139.2489  139.3789  170.9692 O.co2   1  UNL1       -0.5455
     26 O         139.2480  141.9149  170.4048 O.co2   1  UNL1       -0.5455
     27 C         143.5579  142.5806  162.1303 C.3     1  UNL1        0.1010
     28 C         142.9804  143.6594  162.9978 C.3     1  UNL1        0.0644
     29 N         143.5274  143.8868  164.3759 N.3     1  UNL1       -0.3215
     30 H         144.2813  143.2238  164.5561 H       1  UNL1        0.1188
     31 H         142.7853  143.7525  165.0627 H       1  UNL1        0.1188
     32 C         141.8559  144.5108  162.4873 C.3     1  UNL1        0.0447
     33 C         140.4703  144.3288  163.0322 C.ar    1  UNL1        0.0088
     34 C         140.1049  144.9154  164.3636 C.ar    1  UNL1        0.0276
     35 C         138.7193  144.7334  164.9085 C.ar    1  UNL1        0.1400
     36 F         138.3540  145.3200  166.2398 F       1  UNL1       -0.2042
     37 C         137.6990  143.9649  164.1222 C.ar    1  UNL1        0.0319
     38 C         138.0644  143.3783  162.7908 C.ar    1  UNL1        0.0316
     39 C         139.4500  143.5602  162.2458 C.ar    1  UNL1        0.1363
     40 F         139.8154  142.9737  160.9145 F       1  UNL1       -0.2045
@<TRIPOS>UNITY_ATOM_ATTR
25 1
charge -1
@<TRIPOS>BOND
     1    21    22    1
     2    22    23    1
     3    22    20    1
     4    20    19    1
     5    19    13    1
     6    13    14   ar
     7    14    15   ar
     8    15    16   ar
     9    16    12    1
    10    12     8    1
    11     8     9   am
    12     9    10    2
    13     1     9    1
    14     1     2    1
    15     2     3    1
    16     3     4    1
    17     4     5    1
    18     5     6   am
    19     6     7    2
    20     6    27    1
    21    27    28    1
    22    28    29    1
    23    28    32    1
    24    32    33    1
    25    33    34   ar
    26    34    35   ar
    27    35    36    1
    28    35    37   ar
    29    37    38   ar
    30    38    39   ar
    31    39    40    1
    32    16    17   ar
    33    17    18   ar
    34    20    24    1
    35    24    25   ar
    36    24    26   ar
    37    18    13   ar
    38     5     1    1
    39    39    33   ar
    40     8    11    1
    41    29    30    1
    42    29    31    1
@<TRIPOS>MOLECULE
*****
 40 42 0 0 0
SMALL
GASTEIGER

@<TRIPOS>ATOM
      1 C         140.0732  144.9300  159.2923 C.3     1  UNL1        0.1518
      2 C         140.3644  145.6910  158.0329 C.3     1  UNL1        0.0310
      3 C         139.9496  144.8392  156.8701 C.3     1  UNL1        0.0237
      4 C         139.4020  143.5516  157.4108 C.3     1  UNL1        0.0939
      5 N         139.4784  143.6078  158.9078 N.am    1  UNL1       -0.2730
      6 C         139.0374  142.5307  159.8541 C.2     1  UNL1        0.2273
      7 O         139.1762  142.7301  161.3344 O.2     1  UNL1       -0.2748
      8 N         141.5117  144.8857  161.4553 N.am    1  UNL1       -0.2991
      9 C         140.3315  145.4075  160.6907 C.2     1  UNL1        0.2408
     10 O         139.4095  146.4066  161.3243 O.2     1  UNL1       -0.2733
     11 H         142.1169  144.2299  161.0394 H       1  UNL1        0.1498
     12 C         141.7700  145.3631  162.8537 C.3     1  UNL1        0.1164
     13 C         140.6617  142.7671  166.3583 C.ar    1  UNL1        0.1389
     14 C         142.0427  142.6936  165.7776 C.ar    1  UNL1        0.0366
     15 C         142.4122  143.5590  164.6094 C.ar    1  UNL1        0.0005
     16 C         141.4006  144.4978  164.0219 C.ar    1  UNL1       -0.0024
     17 C         140.0195  144.5713  164.6026 C.ar    1  UNL1        0.0005
     18 C         139.6501  143.7059  165.7708 C.ar    1  UNL1        0.0366
     19 O         140.2922  141.9018  167.5265 O.3     1  UNL1       -0.4736
     20 C         140.9762  142.0933  168.8477 C.3     1  UNL1        0.2017
     21 C         142.5579  140.0351  168.7361 C.3     1  UNL1        0.0041
     22 C         142.3192  141.4722  169.0940 C.3     1  UNL1        0.0456
     23 C         143.4234  142.2881  169.6981 C.3     1  UNL1        0.0041
     24 C         140.3172  142.9059  169.9226 C.2     1  UNL1        0.0900
     25 O         139.3022  142.2714  170.8266 O.co2   1  UNL1       -0.5455
     26 O         140.6731  144.3529  170.0935 O.co2   1  UNL1       -0.5455
     27 C         138.4577  141.2545  159.3204 C.3     1  UNL1        0.1010
     28 C         138.6825  139.9647  160.0523 C.3     1  UNL1        0.0644
     29 N         139.8968  139.1356  159.7553 N.3     1  UNL1       -0.3215
     30 H         140.4550  139.5957  159.0362 H       1  UNL1        0.1188
     31 H         139.6074  138.2153  159.4242 H       1  UNL1        0.1188
     32 C         137.6931  139.5039  161.0813 C.3     1  UNL1        0.0447
     33 C         138.0966  139.4165  162.5234 C.ar    1  UNL1        0.0088
     34 C         138.8796  138.2343  163.0128 C.ar    1  UNL1        0.0276
     35 C         139.2831  138.1469  164.4548 C.ar    1  UNL1        0.1400
     36 F         140.0661  136.9649  164.9442 F       1  UNL1       -0.2042
     37 C         138.9035  139.2416  165.4076 C.ar    1  UNL1        0.0319
     38 C         138.1204  140.4237  164.9182 C.ar    1  UNL1        0.0316
     39 C         137.7169  140.5112  163.4761 C.ar    1  UNL1        0.1363
     40 F         136.9339  141.6933  162.9867 F       1  UNL1       -0.2045
@<TRIPOS>UNITY_ATOM_ATTR
25 1
charge -1
@<TRIPOS>BOND
     1    21    22    1
     2    22    23    1
     3    22    20    1
     4    20    19    1
     5    19    13    1
     6    13    14   ar
     7    14    15   ar
     8    15    16   ar
     9    16    12    1
    10    12     8    1
    11     8     9   am
    12     9    10    2
    13     1     9    1
    14     1     2    1
    15     2     3    1
    16     3     4    1
    17     4     5    1
    18     5     6   am
    19     6     7    2
    20     6    27    1
    21    27    28    1
    22    28    29    1
    23    28    32    1
    24    32    33    1
    25    33    34   ar
    26    34    35   ar
    27    35    36    1
    28    35    37   ar
    29    37    38   ar
    30    38    39   ar
    31    39    40    1
    32    16    17   ar
    33    17    18   ar
    34    20    24    1
    35    24    25   ar
    36    24    26   ar
    37    18    13   ar
    38     5     1    1
    39    39    33   ar
    40     8    11    1
    41    29    30    1
    42    29    31    1
@<TRIPOS>MOLECULE
*****
 40 42 0 0 0
SMALL
GASTEIGER

@<TRIPOS>ATOM
      1 C         140.5100  144.0365  159.9383 C.3     1  UNL1        0.1518
      2 C         140.2711  144.8728  158.7162 C.3     1  UNL1        0.0310
      3 C         141.4704  144.7440  157.8246 C.3     1  UNL1        0.0237
      4 C         142.4505  143.8279  158.4957 C.3     1  UNL1        0.0939
      5 N         141.8569  143.3907  159.8020 N.am    1  UNL1       -0.2730
      6 C         142.4978  142.4694  160.7972 C.2     1  UNL1        0.2273
      7 O         141.7795  142.1204  162.0670 O.2     1  UNL1       -0.2748
      8 N         139.9146  144.4557  162.4323 N.am    1  UNL1       -0.2991
      9 C         139.5673  143.8744  161.0939 C.2     1  UNL1        0.2408
     10 O         138.2774  143.1310  160.9109 O.2     1  UNL1       -0.2733
     11 H         140.7613  144.9436  162.5524 H       1  UNL1        0.1498
     12 C         138.9721  144.2936  163.5878 C.3     1  UNL1        0.1164
     13 C         139.6283  140.9988  166.5818 C.ar    1  UNL1        0.1389
     14 C         138.7874  140.7499  165.3648 C.ar    1  UNL1        0.0366
     15 C         138.5687  141.8481  164.3669 C.ar    1  UNL1        0.0005
     16 C         139.1908  143.1953  164.5858 C.ar    1  UNL1       -0.0024
     17 C         140.0317  143.4442  165.8027 C.ar    1  UNL1        0.0005
     18 C         140.2504  142.3460  166.8007 C.ar    1  UNL1        0.0366
     19 O         139.8470  139.9005  167.5797 O.3     1  UNL1       -0.4736
     20 C         140.3669  140.2240  168.9490 C.3     1  UNL1        0.2017
     21 C         142.3567  138.8832  169.9457 C.3     1  UNL1        0.0041
     22 C         141.8326  140.1006  169.2432 C.3     1  UNL1        0.0456
     23 C         142.7742  141.1945  168.8350 C.3     1  UNL1        0.0041
     24 C         139.4212  140.6708  170.0242 C.2     1  UNL1        0.0900
     25 O         138.2626  139.8010  170.4129 O.co2   1  UNL1       -0.5455
     26 O         139.6341  141.9874  170.7106 O.co2   1  UNL1       -0.5455
     27 C         143.8569  141.8971  160.5228 C.3     1  UNL1        0.1010
     28 C         144.6086  141.1933  161.6134 C.3     1  UNL1        0.0644
     29 N         145.5810  141.9538  162.4654 N.3     1  UNL1       -0.3215
     30 H         145.6048  142.9287  162.1666 H       1  UNL1        0.1188
     31 H         146.5106  141.5454  162.3677 H       1  UNL1        0.1188
     32 C         144.3879  139.7289  161.8520 C.3     1  UNL1        0.0447
     33 C         143.5706  139.2749  163.0249 C.ar    1  UNL1        0.0088
     34 C         142.1436  138.8567  162.8278 C.ar    1  UNL1        0.0276
     35 C         141.3263  138.4027  164.0007 C.ar    1  UNL1        0.1400
     36 F         139.8993  137.9844  163.8036 F       1  UNL1       -0.2042
     37 C         141.9358  138.3669  165.3709 C.ar    1  UNL1        0.0319
     38 C         143.3628  138.7852  165.5680 C.ar    1  UNL1        0.0316
     39 C         144.1802  139.2392  164.3950 C.ar    1  UNL1        0.1363
     40 F         145.6072  139.6575  164.5921 F       1  UNL1       -0.2045
@<TRIPOS>UNITY_ATOM_ATTR
25 1
charge -1
@<TRIPOS>BOND
     1    21    22    1
     2    22    23    1
     3    22    20    1
     4    20    19    1
     5    19    13    1
     6    13    14   ar
     7    14    15   ar
     8    15    16   ar
     9    16    12    1
    10    12     8    1
    11     8     9   am
    12     9    10    2
    13     1     9    1
    14     1     2    1
    15     2     3    1
    16     3     4    1
    17     4     5    1
    18     5     6   am
    19     6     7    2
    20     6    27    1
    21    27    28    1
    22    28    29    1
    23    28    32    1
    24    32    33    1
    25    33    34   ar
    26    34    35   ar
    27    35    36    1
    28    35    37   ar
    29    37    38   ar
    30    38    39   ar
    31    39    40    1
    32    16    17   ar
    33    17    18   ar
    34    20    24    1
    35    24    25   ar
    36    24    26   ar
    37    18    13   ar
    38     5     1    1
    39    39    33   ar
    40     8    11    1
    41    29    30    1
    42    29    31    1
@<TRIPOS>MOLECULE
*****
 40 42 0 0 0
SMALL
GASTEIGER

@<TRIPOS>ATOM
      1 C         140.0167  138.9882  159.7767 C.3     1  UNL1        0.1518
      2 C         139.7551  138.3892  158.4265 C.3     1  UNL1        0.0310
      3 C         140.1793  139.3846  157.3877 C.3     1  UNL1        0.0237
      4 C         140.7031  140.5988  158.0958 C.3     1  UNL1        0.0939
      5 N         140.6026  140.3538  159.5723 N.am    1  UNL1       -0.2730
      6 C         141.0156  141.3070  160.6543 C.2     1  UNL1        0.2273
      7 O         140.8546  140.9215  162.0950 O.2     1  UNL1       -0.2748
      8 N         140.8798  137.9009  161.9728 N.am    1  UNL1       -0.2991
      9 C         139.7408  138.3360  161.0990 C.2     1  UNL1        0.2408
     10 O         138.3261  138.1189  161.5476 O.2     1  UNL1       -0.2733
     11 H         141.8084  138.0434  161.6784 H       1  UNL1        0.1498
     12 C         140.6040  137.2487  163.2951 C.3     1  UNL1        0.1164
     13 C         139.6555  139.7756  166.8959 C.ar    1  UNL1        0.1389
     14 C         141.0664  139.6831  166.3951 C.ar    1  UNL1        0.0366
     15 C         141.3825  138.8408  165.1949 C.ar    1  UNL1        0.0005
     16 C         140.2878  138.0910  164.4954 C.ar    1  UNL1       -0.0024
     17 C         138.8769  138.1835  164.9961 C.ar    1  UNL1        0.0005
     18 C         138.5608  139.0258  166.1964 C.ar    1  UNL1        0.0366
     19 O         139.3393  140.6178  168.0961 O.3     1  UNL1       -0.4736
     20 C         140.3985  140.8870  169.1236 C.3     1  UNL1        0.2017
     21 C         142.5613  142.2651  168.7075 C.3     1  UNL1        0.0041
     22 C         141.1228  142.2005  169.1277 C.3     1  UNL1        0.0456
     23 C         140.4087  143.4494  169.5521 C.3     1  UNL1        0.0041
     24 C         140.7334  139.8426  170.1469 C.2     1  UNL1        0.0900
     25 O         139.7644  139.5355  171.2500 O.co2   1  UNL1       -0.5455
     26 O         142.0372  139.1053  170.0671 O.co2   1  UNL1       -0.5455
     27 C         141.5894  142.6457  160.2958 C.3     1  UNL1        0.1010
     28 C         140.7856  143.8916  160.5229 C.3     1  UNL1        0.0644
     29 N         139.6788  144.2528  159.5772 N.3     1  UNL1       -0.3215
     30 H         139.6132  143.5461  158.8447 H       1  UNL1        0.1188
     31 H         139.8738  145.1613  159.1567 H       1  UNL1        0.1188
     32 C         141.0886  144.7762  161.6958 C.3     1  UNL1        0.0447
     33 C         140.6382  144.3797  163.0705 C.ar    1  UNL1        0.0088
     34 C         139.2972  144.8217  163.5769 C.ar    1  UNL1        0.0276
     35 C         138.8468  144.4251  164.9516 C.ar    1  UNL1        0.1400
     36 F         137.5059  144.8671  165.4581 F       1  UNL1       -0.2042
     37 C         139.7373  143.5865  165.8199 C.ar    1  UNL1        0.0319
     38 C         141.0782  143.1445  165.3135 C.ar    1  UNL1        0.0316
     39 C         141.5288  143.5411  163.9387 C.ar    1  UNL1        0.1363
     40 F         142.8697  143.0991  163.4322 F       1  UNL1       -0.2045
@<TRIPOS>UNITY_ATOM_ATTR
25 1
charge -1
@<TRIPOS>BOND
     1    21    22    1
     2    22    23    1
     3    22    20    1
     4    20    19    1
     5    19    13    1
     6    13    14   ar
     7    14    15   ar
     8    15    16   ar
     9    16    12    1
    10    12     8    1
    11     8     9   am
    12     9    10    2
    13     1     9    1
    14     1     2    1
    15     2     3    1
    16     3     4    1
    17     4     5    1
    18     5     6   am
    19     6     7    2
    20     6    27    1
    21    27    28    1
    22    28    29    1
    23    28    32    1
    24    32    33    1
    25    33    34   ar
    26    34    35   ar
    27    35    36    1
    28    35    37   ar
    29    37    38   ar
    30    38    39   ar
    31    39    40    1
    32    16    17   ar
    33    17    18   ar
    34    20    24    1
    35    24    25   ar
    36    24    26   ar
    37    18    13   ar
    38     5     1    1
    39    39    33   ar
    40     8    11    1
    41    29    30    1
    42    29    31    1
@<TRIPOS>MOLECULE
*****
 40 42 0 0 0
SMALL
GASTEIGER

@<TRIPOS>ATOM
      1 C         138.8620  142.4697  160.6559 C.3     1  UNL1        0.1518
      2 C         138.3111  142.4248  159.2614 C.3     1  UNL1        0.0310
      3 C         139.2038  143.2508  158.3835 C.3     1  UNL1        0.0237
      4 C         140.3064  143.8063  159.2355 C.3     1  UNL1        0.0939
      5 N         140.0951  143.3236  160.6398 N.am    1  UNL1       -0.2730
      6 C         140.9644  143.6393  161.8208 C.2     1  UNL1        0.2273
      7 O         140.6259  143.0817  163.1716 O.2     1  UNL1       -0.2748
      8 N         138.6752  140.3696  162.1740 N.am    1  UNL1       -0.2991
      9 C         138.2815  141.7816  161.8558 C.2     1  UNL1        0.2408
     10 O         137.3075  142.5055  162.7373 O.2     1  UNL1       -0.2733
     11 H         139.3145  139.8945  161.5954 H       1  UNL1        0.1498
     12 C         138.0948  139.6815  163.3738 C.3     1  UNL1        0.1164
     13 C         140.3518  139.6611  167.2668 C.ar    1  UNL1        0.1389
     14 C         141.0837  139.8846  165.9768 C.ar    1  UNL1        0.0366
     15 C         140.3314  139.8914  164.6791 C.ar    1  UNL1        0.0005
     16 C         138.8472  139.6747  164.6715 C.ar    1  UNL1       -0.0024
     17 C         138.1153  139.4512  165.9616 C.ar    1  UNL1        0.0005
     18 C         138.8676  139.4444  167.2593 C.ar    1  UNL1        0.0366
     19 O         141.1042  139.6543  168.5645 O.3     1  UNL1       -0.4736
     20 C         140.9760  140.8102  169.5118 C.3     1  UNL1        0.2017
     21 C         142.9222  142.4905  169.1390 C.3     1  UNL1        0.0041
     22 C         141.4570  142.1711  169.1038 C.3     1  UNL1        0.0456
     23 C         140.4728  143.2127  168.6606 C.3     1  UNL1        0.0041
     24 C         140.3668  140.6052  170.8672 C.2     1  UNL1        0.0900
     25 O         139.4131  139.4705  171.0969 O.co2   1  UNL1       -0.5455
     26 O         140.7115  141.5348  171.9927 O.co2   1  UNL1       -0.5455
     27 C         142.1721  144.5125  161.6511 C.3     1  UNL1        0.1010
     28 C         143.2747  144.4735  162.6674 C.3     1  UNL1        0.0644
     29 N         143.1724  145.2971  163.9168 N.3     1  UNL1       -0.3215
     30 H         142.2952  145.8175  163.9102 H       1  UNL1        0.1188
     31 H         143.9549  145.9502  163.9585 H       1  UNL1        0.1188
     32 C         144.4795  143.6109  162.4341 C.3     1  UNL1        0.0447
     33 C         144.4238  142.1447  162.7459 C.ar    1  UNL1        0.0088
     34 C         144.3083  141.1453  161.6332 C.ar    1  UNL1        0.0276
     35 C         144.2527  139.6791  161.9449 C.ar    1  UNL1        0.1400
     36 F         144.1372  138.6797  160.8323 F       1  UNL1       -0.2042
     37 C         144.3125  139.2122  163.3692 C.ar    1  UNL1        0.0319
     38 C         144.4280  140.2117  164.4817 C.ar    1  UNL1        0.0316
     39 C         144.4837  141.6779  164.1701 C.ar    1  UNL1        0.1363
     40 F         144.5992  142.6774  165.2827 F       1  UNL1       -0.2045
@<TRIPOS>UNITY_ATOM_ATTR
25 1
charge -1
@<TRIPOS>BOND
     1    21    22    1
     2    22    23    1
     3    22    20    1
     4    20    19    1
     5    19    13    1
     6    13    14   ar
     7    14    15   ar
     8    15    16   ar
     9    16    12    1
    10    12     8    1
    11     8     9   am
    12     9    10    2
    13     1     9    1
    14     1     2    1
    15     2     3    1
    16     3     4    1
    17     4     5    1
    18     5     6   am
    19     6     7    2
    20     6    27    1
    21    27    28    1
    22    28    29    1
    23    28    32    1
    24    32    33    1
    25    33    34   ar
    26    34    35   ar
    27    35    36    1
    28    35    37   ar
    29    37    38   ar
    30    38    39   ar
    31    39    40    1
    32    16    17   ar
    33    17    18   ar
    34    20    24    1
    35    24    25   ar
    36    24    26   ar
    37    18    13   ar
    38     5     1    1
    39    39    33   ar
    40     8    11    1
    41    29    30    1
    42    29    31    1
@<TRIPOS>MOLECULE
*****
 40 42 0 0 0
SMALL
GASTEIGER

@<TRIPOS>ATOM
      1 C         143.7847  142.3500  160.1079 C.3     1  UNL1        0.1518
      2 C         144.6667  142.7057  158.9478 C.3     1  UNL1        0.0310
      3 C         144.5322  141.6261  157.9151 C.3     1  UNL1        0.0237
      4 C         143.5672  140.6032  158.4370 C.3     1  UNL1        0.0939
      5 N         143.1052  141.0505  159.7921 N.am    1  UNL1       -0.2730
      6 C         142.1342  140.3257  160.6763 C.2     1  UNL1        0.2273
      7 O         141.7652  140.8983  162.0127 O.2     1  UNL1       -0.2748
      8 N         144.1413  142.6302  162.6661 N.am    1  UNL1       -0.2991
      9 C         143.6125  143.1528  161.3633 C.2     1  UNL1        0.2408
     10 O         142.9116  144.4781  161.3158 O.2     1  UNL1       -0.2733
     11 H         144.6014  141.7604  162.6972 H       1  UNL1        0.1498
     12 C         143.9692  143.4330  163.9214 C.3     1  UNL1        0.1164
     13 C         141.0334  142.0992  167.0603 C.ar    1  UNL1        0.1389
     14 C         140.5921  143.0248  165.9656 C.ar    1  UNL1        0.0366
     15 C         141.5707  143.4694  164.9193 C.ar    1  UNL1        0.0005
     16 C         142.9906  142.9884  164.9677 C.ar    1  UNL1       -0.0024
     17 C         143.4319  142.0628  166.0624 C.ar    1  UNL1        0.0005
     18 C         142.4534  141.6182  167.1087 C.ar    1  UNL1        0.0366
     19 O         140.0548  141.6546  168.1065 O.3     1  UNL1       -0.4736
     20 C         140.3380  141.9135  169.5566 C.3     1  UNL1        0.2017
     21 C         140.2648  144.4594  170.0697 C.3     1  UNL1        0.0041
     22 C         141.0345  143.1756  169.9711 C.3     1  UNL1        0.0456
     23 C         142.5007  143.1541  170.2869 C.3     1  UNL1        0.0041
     24 C         139.9246  140.9102  170.5923 C.2     1  UNL1        0.0900
     25 O         140.6722  140.8200  171.8896 O.co2   1  UNL1       -0.5455
     26 O         138.7637  139.9971  170.3306 O.co2   1  UNL1       -0.5455
     27 C         141.5322  139.0284  160.2242 C.3     1  UNL1        0.1010
     28 C         140.9541  138.0785  161.2309 C.3     1  UNL1        0.0644
     29 N         141.8408  137.0824  161.9176 N.3     1  UNL1       -0.3215
     30 H         142.7979  137.1911  161.5822 H       1  UNL1        0.1188
     31 H         141.5138  136.1382  161.7127 H       1  UNL1        0.1188
     32 C         139.4894  138.1248  161.5509 C.3     1  UNL1        0.0447
     33 C         139.0298  138.6143  162.8922 C.ar    1  UNL1        0.0088
     34 C         138.9466  137.6634  164.0494 C.ar    1  UNL1        0.0276
     35 C         138.4870  138.1530  165.3907 C.ar    1  UNL1        0.1400
     36 F         138.4038  137.2022  166.5479 F       1  UNL1       -0.2042
     37 C         138.1106  139.5933  165.5749 C.ar    1  UNL1        0.0319
     38 C         138.1939  140.5441  164.4177 C.ar    1  UNL1        0.0316
     39 C         138.6534  140.0546  163.0763 C.ar    1  UNL1        0.1363
     40 F         138.7367  141.0054  161.9191 F       1  UNL1       -0.2045
@<TRIPOS>UNITY_ATOM_ATTR
25 1
charge -1
@<TRIPOS>BOND
     1    21    22    1
     2    22    23    1
     3    22    20    1
     4    20    19    1
     5    19    13    1
     6    13    14   ar
     7    14    15   ar
     8    15    16   ar
     9    16    12    1
    10    12     8    1
    11     8     9   am
    12     9    10    2
    13     1     9    1
    14     1     2    1
    15     2     3    1
    16     3     4    1
    17     4     5    1
    18     5     6   am
    19     6     7    2
    20     6    27    1
    21    27    28    1
    22    28    29    1
    23    28    32    1
    24    32    33    1
    25    33    34   ar
    26    34    35   ar
    27    35    36    1
    28    35    37   ar
    29    37    38   ar
    30    38    39   ar
    31    39    40    1
    32    16    17   ar
    33    17    18   ar
    34    20    24    1
    35    24    25   ar
    36    24    26   ar
    37    18    13   ar
    38     5     1    1
    39    39    33   ar
    40     8    11    1
    41    29    30    1
    42    29    31    1
@<TRIPOS>MOLECULE
*****
 40 42 0 0 0
SMALL
GASTEIGER

@<TRIPOS>ATOM
      1 C         143.7674  141.8182  159.8284 C.3     1  UNL1        0.1518
      2 C         144.5497  142.0164  158.5640 C.3     1  UNL1        0.0310
      3 C         144.2452  140.8699  157.6460 C.3     1  UNL1        0.0237
      4 C         143.2747  139.9630  158.3431 C.3     1  UNL1        0.0939
      5 N         142.9795  140.5492  159.6919 N.am    1  UNL1       -0.2730
      6 C         142.0580  139.9682  160.7231 C.2     1  UNL1        0.2273
      7 O         141.8610  140.6707  162.0338 O.2     1  UNL1       -0.2748
      8 N         144.4303  142.2923  162.2954 N.am    1  UNL1       -0.2991
      9 C         143.7723  142.7292  161.0202 C.2     1  UNL1        0.2408
     10 O         143.1192  144.0769  160.9367 O.2     1  UNL1       -0.2733
     11 H         144.8589  141.4077  162.3502 H       1  UNL1        0.1498
     12 C         144.4352  143.2032  163.4871 C.3     1  UNL1        0.1164
     13 C         141.1790  142.8838  166.5767 C.ar    1  UNL1        0.1389
     14 C         142.5618  142.3952  166.8912 C.ar    1  UNL1        0.0366
     15 C         143.6472  142.5016  165.8614 C.ar    1  UNL1        0.0005
     16 C         143.3498  143.0967  164.5170 C.ar    1  UNL1       -0.0024
     17 C         141.9669  143.5853  164.2025 C.ar    1  UNL1        0.0005
     18 C         140.8815  143.4789  165.2323 C.ar    1  UNL1        0.0366
     19 O         140.0936  142.7774  167.6065 O.3     1  UNL1       -0.4736
     20 C         140.4381  142.4422  169.0274 C.3     1  UNL1        0.2017
     21 C         140.4902  140.7213  170.9731 C.3     1  UNL1        0.0041
     22 C         140.3162  141.0290  169.5153 C.3     1  UNL1        0.0456
     23 C         140.0203  139.9236  168.5456 C.3     1  UNL1        0.0041
     24 C         140.9046  143.5202  169.9604 C.2     1  UNL1        0.0900
     25 O         139.9648  144.6146  170.3715 O.co2   1  UNL1       -0.5455
     26 O         142.3107  143.5037  170.4822 O.co2   1  UNL1       -0.5455
     27 C         141.3336  138.6848  160.4438 C.3     1  UNL1        0.1010
     28 C         140.6258  137.9661  161.5540 C.3     1  UNL1        0.0644
     29 N         141.3820  137.0151  162.4337 N.3     1  UNL1       -0.3215
     30 H         142.3572  136.9796  162.1368 H       1  UNL1        0.1188
     31 H         140.9705  136.0846  162.3612 H       1  UNL1        0.1188
     32 C         139.1619  138.1983  161.7844 C.3     1  UNL1        0.0447
     33 C         138.7121  139.2939  162.7049 C.ar    1  UNL1        0.0088
     34 C         138.2714  140.6126  162.1420 C.ar    1  UNL1        0.0276
     35 C         137.8216  141.7082  163.0625 C.ar    1  UNL1        0.1400
     36 F         137.3809  143.0270  162.4997 F       1  UNL1       -0.2042
     37 C         137.8125  141.4852  164.5458 C.ar    1  UNL1        0.0319
     38 C         138.2532  140.1665  165.1086 C.ar    1  UNL1        0.0316
     39 C         138.7030  139.0708  164.1882 C.ar    1  UNL1        0.1363
     40 F         139.1437  137.7521  164.7510 F       1  UNL1       -0.2045
@<TRIPOS>UNITY_ATOM_ATTR
25 1
charge -1
@<TRIPOS>BOND
     1    21    22    1
     2    22    23    1
     3    22    20    1
     4    20    19    1
     5    19    13    1
     6    13    14   ar
     7    14    15   ar
     8    15    16   ar
     9    16    12    1
    10    12     8    1
    11     8     9   am
    12     9    10    2
    13     1     9    1
    14     1     2    1
    15     2     3    1
    16     3     4    1
    17     4     5    1
    18     5     6   am
    19     6     7    2
    20     6    27    1
    21    27    28    1
    22    28    29    1
    23    28    32    1
    24    32    33    1
    25    33    34   ar
    26    34    35   ar
    27    35    36    1
    28    35    37   ar
    29    37    38   ar
    30    38    39   ar
    31    39    40    1
    32    16    17   ar
    33    17    18   ar
    34    20    24    1
    35    24    25   ar
    36    24    26   ar
    37    18    13   ar
    38     5     1    1
    39    39    33   ar
    40     8    11    1
    41    29    30    1
    42    29    31    1
