@<TRIPOS>MOLECULE
*****
 34 37 0 0 0
SMALL
GASTEIGER

@<TRIPOS>ATOM
      1 C         141.8910  144.9951  163.9495 C.3     1  UNL1        0.0033
      2 C         140.8117  144.0061  163.6226 C.3     1  UNL1        0.0080
      3 C         140.4692  142.9196  164.5985 C.3     1  UNL1        0.0177
      4 C         139.3899  141.9306  164.2716 C.3     1  UNL1        0.0721
      5 N         138.6529  142.0281  162.9688 N.3     1  UNL1       -0.2716
      6 C         138.9953  143.1144  161.9928 C.3     1  UNL1        0.0776
      7 C         140.0747  144.1035  162.3197 C.3     1  UNL1        0.0525
      8 C         140.4171  145.1899  161.3438 C.2     1  UNL1        0.0513
      9 O         141.6556  145.0812  160.5047 O.co2   1  UNL1       -0.5491
     10 O         139.5209  146.3849  161.2070 O.co2   1  UNL1       -0.5491
     11 C         137.5736  141.0391  162.6418 C.3     1  UNL1        0.0842
     12 C         137.7656  140.0632  161.5189 C.3     1  UNL1        0.0800
     13 S         137.9373  138.6029  161.8154 S.3     1  UNL1       -0.1058
     14 C         139.0371  138.1472  162.7280 C.ar    1  UNL1        0.0546
     15 C         138.9248  137.9404  164.2094 C.ar    1  UNL1        0.0132
     16 C         140.2606  137.4836  164.7163 C.ar    1  UNL1        0.0080
     17 C         141.1986  137.4081  163.5482 C.ar    1  UNL1        0.0359
     18 S         140.4424  137.8183  162.3193 S.2     1  UNL1       -0.0802
     19 C         143.3261  144.6579  163.6724 C.3     1  UNL1        0.0338
     20 C         144.1011  143.8200  164.6458 C.3     1  UNL1        0.1328
     21 O         144.8447  144.4740  165.7725 O.3     1  UNL1       -0.3801
     22 H         144.7212  145.4350  165.7267 H       1  UNL1        0.2108
     23 C         142.4090  141.1897  167.8813 C.ar    1  UNL1        0.1388
     24 C         142.4403  139.6979  167.7281 C.ar    1  UNL1        0.0384
     25 C         143.0357  139.0829  166.4963 C.ar    1  UNL1        0.0222
     26 C         143.5997  139.9596  165.4178 C.ar    1  UNL1        0.0813
     27 N         144.1950  139.3445  164.1860 N.ar    1  UNL1       -0.2439
     28 C         144.7590  140.2213  163.1075 C.ar    1  UNL1        0.0986
     29 C         144.7277  141.7131  163.2608 C.ar    1  UNL1        0.0187
     30 C         144.1324  142.3282  164.4926 C.ar    1  UNL1        0.0073
     31 C         143.5683  141.4514  165.5711 C.ar    1  UNL1        0.0190
     32 C         142.9730  142.0664  166.8029 C.ar    1  UNL1        0.0382
     33 C         140.7492  142.8542  168.9880 C.3     1  UNL1        0.2525
     34 O         141.8136  141.8048  169.1131 O.3     1  UNL1       -0.4714
@<TRIPOS>UNITY_ATOM_ATTR
9 1
charge -1
@<TRIPOS>BOND
     1    33    34    1
     2    34    23    1
     3    23    24   ar
     4    24    25   ar
     5    25    26   ar
     6    26    27   ar
     7    27    28   ar
     8    28    29   ar
     9    29    30   ar
    10    30    20    1
    11    20    21    1
    12    20    19    1
    13    19     1    1
    14     2     1    1
    15     2     3    1
    16     3     4    1
    17     4     5    1
    18     5    11    1
    19    11    12    1
    20    12    13    1
    21    13    14    1
    22    14    15   ar
    23    15    16   ar
    24    16    17   ar
    25    17    18   ar
    26     5     6    1
    27     6     7    1
    28     7     8    1
    29     8     9   ar
    30     8    10   ar
    31    30    31   ar
    32    31    32   ar
    33    32    23   ar
    34    31    26   ar
    35     7     2    1
    36    18    14   ar
    37    21    22    1
@<TRIPOS>MOLECULE
*****
 34 37 0 0 0
SMALL
GASTEIGER

@<TRIPOS>ATOM
      1 C         140.8056  139.5149  167.3200 C.3     1  UNL1        0.0033
      2 C         141.8757  139.8609  166.3275 C.3     1  UNL1        0.0080
      3 C         142.2334  138.8902  165.2412 C.3     1  UNL1        0.0177
      4 C         143.3034  139.2362  164.2487 C.3     1  UNL1        0.0721
      5 N         144.0159  140.5529  164.3424 N.3     1  UNL1       -0.2716
      6 C         143.6583  141.5236  165.4286 C.3     1  UNL1        0.0776
      7 C         142.5882  141.1776  166.4212 C.3     1  UNL1        0.0525
      8 C         142.2305  142.1482  167.5074 C.2     1  UNL1        0.0513
      9 O         143.1183  142.2906  168.7080 O.co2   1  UNL1       -0.5491
     10 O         140.9852  142.9765  167.3929 O.co2   1  UNL1       -0.5491
     11 C         145.0860  140.8989  163.3499 C.3     1  UNL1        0.0842
     12 C         144.7161  141.2422  161.9372 C.3     1  UNL1        0.0800
     13 S         144.4211  142.6646  161.5637 S.3     1  UNL1       -0.1058
     14 C         143.4310  143.4599  162.3622 C.ar    1  UNL1        0.0546
     15 C         141.9748  143.1417  162.5299 C.ar    1  UNL1        0.0132
     16 C         141.3673  144.1981  163.4045 C.ar    1  UNL1        0.0080
     17 C         142.4480  145.1692  163.7773 C.ar    1  UNL1        0.0359
     18 S         143.7236  144.7130  163.1331 S.2     1  UNL1       -0.0802
     19 C         139.4114  140.0352  167.1317 C.3     1  UNL1        0.0338
     20 C         138.4188  139.2472  166.3293 C.3     1  UNL1        0.1328
     21 O         137.3005  138.5247  167.0203 O.3     1  UNL1       -0.3801
     22 H         137.3647  138.6694  167.9773 H       1  UNL1        0.2108
     23 C         137.8619  142.9674  163.8594 C.ar    1  UNL1        0.1388
     24 C         137.9876  142.9019  162.3661 C.ar    1  UNL1        0.0384
     25 C         138.2988  141.5964  161.6962 C.ar    1  UNL1        0.0222
     26 C         138.4844  140.3564  162.5194 C.ar    1  UNL1        0.0813
     27 N         138.7956  139.0509  161.8495 N.ar    1  UNL1       -0.2439
     28 C         138.9812  137.8109  162.6727 C.ar    1  UNL1        0.0986
     29 C         138.8556  137.8763  164.1661 C.ar    1  UNL1        0.0187
     30 C         138.5444  139.1818  164.8361 C.ar    1  UNL1        0.0073
     31 C         138.3588  140.4219  164.0127 C.ar    1  UNL1        0.0190
     32 C         138.0476  141.7273  164.6827 C.ar    1  UNL1        0.0382
     33 C         138.5135  144.8550  165.5214 C.3     1  UNL1        0.2525
     34 O         137.5507  144.2728  164.5294 O.3     1  UNL1       -0.4714
@<TRIPOS>UNITY_ATOM_ATTR
9 1
charge -1
@<TRIPOS>BOND
     1    33    34    1
     2    34    23    1
     3    23    24   ar
     4    24    25   ar
     5    25    26   ar
     6    26    27   ar
     7    27    28   ar
     8    28    29   ar
     9    29    30   ar
    10    30    20    1
    11    20    21    1
    12    20    19    1
    13    19     1    1
    14     2     1    1
    15     2     3    1
    16     3     4    1
    17     4     5    1
    18     5    11    1
    19    11    12    1
    20    12    13    1
    21    13    14    1
    22    14    15   ar
    23    15    16   ar
    24    16    17   ar
    25    17    18   ar
    26     5     6    1
    27     6     7    1
    28     7     8    1
    29     8     9   ar
    30     8    10   ar
    31    30    31   ar
    32    31    32   ar
    33    32    23   ar
    34    31    26   ar
    35     7     2    1
    36    18    14   ar
    37    21    22    1
@<TRIPOS>MOLECULE
*****
 34 37 0 0 0
SMALL
GASTEIGER

@<TRIPOS>ATOM
      1 C         137.7951  143.2992  163.0203 C.3     1  UNL1        0.0033
      2 C         138.5048  141.9910  162.8336 C.3     1  UNL1        0.0080
      3 C         138.4131  140.9305  163.8905 C.3     1  UNL1        0.0177
      4 C         139.1227  139.6222  163.7038 C.3     1  UNL1        0.0721
      5 N         139.9241  139.3745  162.4602 N.3     1  UNL1       -0.2716
      6 C         140.0158  140.4349  161.4034 C.3     1  UNL1        0.0776
      7 C         139.3061  141.7432  161.5900 C.3     1  UNL1        0.0525
      8 C         139.3979  142.8037  160.5332 C.2     1  UNL1        0.0513
      9 O         140.6063  143.6894  160.4624 O.co2   1  UNL1       -0.5491
     10 O         138.2811  142.9784  159.5471 O.co2   1  UNL1       -0.5491
     11 C         140.6337  138.0662  162.2735 C.3     1  UNL1        0.0842
     12 C         141.9713  137.8405  162.9138 C.3     1  UNL1        0.0800
     13 S         143.2265  138.2016  162.1761 S.3     1  UNL1       -0.1058
     14 C         144.0556  139.3657  162.6316 C.ar    1  UNL1        0.0546
     15 C         144.8299  139.4487  163.9136 C.ar    1  UNL1        0.0132
     16 C         145.5088  140.7855  163.9594 C.ar    1  UNL1        0.0080
     17 C         145.1540  141.5287  162.7056 C.ar    1  UNL1        0.0359
     18 S         144.2559  140.6512  161.8850 S.2     1  UNL1       -0.0802
     19 C         137.5278  143.8168  164.4025 C.3     1  UNL1        0.0338
     20 C         138.5906  144.5798  165.1363 C.3     1  UNL1        0.1328
     21 O         138.2103  145.5269  166.2355 O.3     1  UNL1       -0.3801
     22 H         137.2462  145.5273  166.3428 H       1  UNL1        0.2108
     23 C         141.1172  141.6059  167.3773 C.ar    1  UNL1        0.1388
     24 C         142.5603  141.4217  167.0119 C.ar    1  UNL1        0.0384
     25 C         143.1612  142.2288  165.8995 C.ar    1  UNL1        0.0222
     26 C         142.3190  143.2201  165.1525 C.ar    1  UNL1        0.0813
     27 N         142.9199  144.0272  164.0400 N.ar    1  UNL1       -0.2439
     28 C         142.0777  145.0185  163.2930 C.ar    1  UNL1        0.0986
     29 C         140.6346  145.2027  163.6584 C.ar    1  UNL1        0.0187
     30 C         140.0337  144.3956  164.7709 C.ar    1  UNL1        0.0073
     31 C         140.8759  143.4043  165.5179 C.ar    1  UNL1        0.0190
     32 C         140.2750  142.5972  166.6303 C.ar    1  UNL1        0.0382
     33 C         139.3137  139.9411  168.2291 C.3     1  UNL1        0.2525
     34 O         140.5163  140.7988  168.4898 O.3     1  UNL1       -0.4714
@<TRIPOS>UNITY_ATOM_ATTR
9 1
charge -1
@<TRIPOS>BOND
     1    33    34    1
     2    34    23    1
     3    23    24   ar
     4    24    25   ar
     5    25    26   ar
     6    26    27   ar
     7    27    28   ar
     8    28    29   ar
     9    29    30   ar
    10    30    20    1
    11    20    21    1
    12    20    19    1
    13    19     1    1
    14     2     1    1
    15     2     3    1
    16     3     4    1
    17     4     5    1
    18     5    11    1
    19    11    12    1
    20    12    13    1
    21    13    14    1
    22    14    15   ar
    23    15    16   ar
    24    16    17   ar
    25    17    18   ar
    26     5     6    1
    27     6     7    1
    28     7     8    1
    29     8     9   ar
    30     8    10   ar
    31    30    31   ar
    32    31    32   ar
    33    32    23   ar
    34    31    26   ar
    35     7     2    1
    36    18    14   ar
    37    21    22    1
@<TRIPOS>MOLECULE
*****
 34 37 0 0 0
SMALL
GASTEIGER

@<TRIPOS>ATOM
      1 C         137.8278  141.2745  164.2861 C.3     1  UNL1        0.0033
      2 C         138.9333  142.2740  164.1163 C.3     1  UNL1        0.0080
      3 C         139.6523  142.8087  165.3194 C.3     1  UNL1        0.0177
      4 C         140.7578  143.8082  165.1497 C.3     1  UNL1        0.0721
      5 N         141.1443  144.2731  163.7769 N.3     1  UNL1       -0.2716
      6 C         140.4254  143.7386  162.5739 C.3     1  UNL1        0.0776
      7 C         139.3198  142.7390  162.7436 C.3     1  UNL1        0.0525
      8 C         138.6009  142.2044  161.5406 C.2     1  UNL1        0.0513
      9 O         138.8497  140.7982  161.0816 O.co2   1  UNL1       -0.5491
     10 O         137.6331  143.0760  160.7965 O.co2   1  UNL1       -0.5491
     11 C         142.2498  145.2726  163.6072 C.3     1  UNL1        0.0842
     12 C         143.6802  144.8350  163.7182 C.3     1  UNL1        0.0800
     13 S         144.2787  143.9528  162.6630 S.3     1  UNL1       -0.1058
     14 C         144.5110  142.4979  162.9448 C.ar    1  UNL1        0.0546
     15 C         145.3624  141.9380  164.0456 C.ar    1  UNL1        0.0132
     16 C         145.3103  140.4416  163.9564 C.ar    1  UNL1        0.0080
     17 C         144.4266  140.0766  162.8006 C.ar    1  UNL1        0.0359
     18 S         143.9326  141.3475  162.1753 S.2     1  UNL1       -0.0802
     19 C         138.1434  139.8091  164.3399 C.3     1  UNL1        0.0338
     20 C         138.5951  139.1860  165.6275 C.3     1  UNL1        0.1328
     21 O         137.5824  138.6796  166.6114 O.3     1  UNL1       -0.3801
     22 H         136.6897  138.8308  166.2633 H       1  UNL1        0.2108
     23 C         140.2608  140.9857  169.4006 C.ar    1  UNL1        0.1388
     24 C         141.7251  140.8690  169.7043 C.ar    1  UNL1        0.0384
     25 C         142.6342  140.1524  168.7502 C.ar    1  UNL1        0.0222
     26 C         142.0789  139.5525  167.4926 C.ar    1  UNL1        0.0813
     27 N         142.9880  138.8360  166.5385 N.ar    1  UNL1       -0.2439
     28 C         142.4328  138.2361  165.2808 C.ar    1  UNL1        0.0986
     29 C         140.9684  138.3527  164.9771 C.ar    1  UNL1        0.0187
     30 C         140.0594  139.0693  165.9312 C.ar    1  UNL1        0.0073
     31 C         140.6147  139.6692  167.1889 C.ar    1  UNL1        0.0190
     32 C         139.7056  140.3858  168.1429 C.ar    1  UNL1        0.0382
     33 C         139.6585  143.1112  170.7678 C.3     1  UNL1        0.2525
     34 O         139.3518  141.7023  170.3546 O.3     1  UNL1       -0.4714
@<TRIPOS>UNITY_ATOM_ATTR
9 1
charge -1
@<TRIPOS>BOND
     1    33    34    1
     2    34    23    1
     3    23    24   ar
     4    24    25   ar
     5    25    26   ar
     6    26    27   ar
     7    27    28   ar
     8    28    29   ar
     9    29    30   ar
    10    30    20    1
    11    20    21    1
    12    20    19    1
    13    19     1    1
    14     2     1    1
    15     2     3    1
    16     3     4    1
    17     4     5    1
    18     5    11    1
    19    11    12    1
    20    12    13    1
    21    13    14    1
    22    14    15   ar
    23    15    16   ar
    24    16    17   ar
    25    17    18   ar
    26     5     6    1
    27     6     7    1
    28     7     8    1
    29     8     9   ar
    30     8    10   ar
    31    30    31   ar
    32    31    32   ar
    33    32    23   ar
    34    31    26   ar
    35     7     2    1
    36    18    14   ar
    37    21    22    1
@<TRIPOS>MOLECULE
*****
 34 37 0 0 0
SMALL
GASTEIGER

@<TRIPOS>ATOM
      1 C         138.2167  144.1854  164.2945 C.3     1  UNL1        0.0033
      2 C         138.2754  143.3115  163.0769 C.3     1  UNL1        0.0080
      3 C         137.4713  142.0464  163.0222 C.3     1  UNL1        0.0177
      4 C         137.5300  141.1724  161.8045 C.3     1  UNL1        0.0721
      5 N         138.3927  141.5635  160.6415 N.3     1  UNL1       -0.2716
      6 C         139.1968  142.8286  160.6961 C.3     1  UNL1        0.0776
      7 C         139.1382  143.7026  161.9138 C.3     1  UNL1        0.0525
      8 C         139.9422  144.9677  161.9685 C.2     1  UNL1        0.0513
      9 O         141.3069  144.9626  162.5911 O.co2   1  UNL1       -0.5491
     10 O         139.3817  146.2378  161.4004 O.co2   1  UNL1       -0.5491
     11 C         138.4514  140.6896  159.4239 C.3     1  UNL1        0.0842
     12 C         139.0416  139.3136  159.5159 C.3     1  UNL1        0.0800
     13 S         140.3494  139.1041  160.2199 S.3     1  UNL1       -0.1058
     14 C         140.3859  138.3865  161.5367 C.ar    1  UNL1        0.0546
     15 C         141.6126  137.8575  162.2189 C.ar    1  UNL1        0.0132
     16 C         141.1869  137.2161  163.5062 C.ar    1  UNL1        0.0080
     17 C         139.6970  137.3486  163.6197 C.ar    1  UNL1        0.0359
     18 S         139.2020  138.0720  162.4024 S.2     1  UNL1       -0.0802
     19 C         139.2438  144.0333  165.3770 C.3     1  UNL1        0.0338
     20 C         140.1000  142.8028  165.4310 C.3     1  UNL1        0.1328
     21 O         141.3935  142.7554  164.6729 O.3     1  UNL1       -0.3801
     22 H         141.5249  143.5947  164.2047 H       1  UNL1        0.2108
     23 C         141.1439  142.5641  169.8017 C.ar    1  UNL1        0.1388
     24 C         140.7067  141.3811  170.6137 C.ar    1  UNL1        0.0384
     25 C         139.9215  140.2777  169.9688 C.ar    1  UNL1        0.0222
     26 C         139.5735  140.3573  168.5119 C.ar    1  UNL1        0.0813
     27 N         138.7883  139.2539  167.8670 N.ar    1  UNL1       -0.2439
     28 C         138.4403  139.3334  166.4101 C.ar    1  UNL1        0.0986
     29 C         138.8776  140.5164  165.5981 C.ar    1  UNL1        0.0187
     30 C         139.6628  141.6198  166.2430 C.ar    1  UNL1        0.0073
     31 C         140.0107  141.5402  167.6999 C.ar    1  UNL1        0.0190
     32 C         140.7960  142.6437  168.3448 C.ar    1  UNL1        0.0382
     33 C         143.3598  143.4412  170.8363 C.3     1  UNL1        0.2525
     34 O         141.9292  143.6675  170.4466 O.3     1  UNL1       -0.4714
@<TRIPOS>UNITY_ATOM_ATTR
9 1
charge -1
@<TRIPOS>BOND
     1    33    34    1
     2    34    23    1
     3    23    24   ar
     4    24    25   ar
     5    25    26   ar
     6    26    27   ar
     7    27    28   ar
     8    28    29   ar
     9    29    30   ar
    10    30    20    1
    11    20    21    1
    12    20    19    1
    13    19     1    1
    14     2     1    1
    15     2     3    1
    16     3     4    1
    17     4     5    1
    18     5    11    1
    19    11    12    1
    20    12    13    1
    21    13    14    1
    22    14    15   ar
    23    15    16   ar
    24    16    17   ar
    25    17    18   ar
    26     5     6    1
    27     6     7    1
    28     7     8    1
    29     8     9   ar
    30     8    10   ar
    31    30    31   ar
    32    31    32   ar
    33    32    23   ar
    34    31    26   ar
    35     7     2    1
    36    18    14   ar
    37    21    22    1
@<TRIPOS>MOLECULE
*****
 34 37 0 0 0
SMALL
GASTEIGER

@<TRIPOS>ATOM
      1 C         142.2518  144.6766  164.0221 C.3     1  UNL1        0.0033
      2 C         141.5874  143.7170  163.0800 C.3     1  UNL1        0.0080
      3 C         142.2815  143.3055  161.8155 C.3     1  UNL1        0.0177
      4 C         141.6171  142.3459  160.8733 C.3     1  UNL1        0.0721
      5 N         140.2585  141.7978  161.1956 N.3     1  UNL1       -0.2716
      6 C         139.5644  142.2092  162.4601 C.3     1  UNL1        0.0776
      7 C         140.2288  143.1689  163.4023 C.3     1  UNL1        0.0525
      8 C         139.5347  143.5803  164.6667 C.2     1  UNL1        0.0513
      9 O         139.5412  142.6676  165.8570 O.co2   1  UNL1       -0.5491
     10 O         138.8340  144.9046  164.7409 O.co2   1  UNL1       -0.5491
     11 C         139.5941  140.8382  160.2535 C.3     1  UNL1        0.0842
     12 C         138.7663  139.7094  160.7928 C.3     1  UNL1        0.0800
     13 S         139.3976  138.3739  161.0528 S.3     1  UNL1       -0.1058
     14 C         139.7720  137.9806  162.4511 C.ar    1  UNL1        0.0546
     15 C         138.8792  138.0469  163.6546 C.ar    1  UNL1        0.0132
     16 C         139.6604  137.5593  164.8387 C.ar    1  UNL1        0.0080
     17 C         141.0360  137.1916  164.3669 C.ar    1  UNL1        0.0359
     18 S         141.1050  137.4520  162.8912 S.2     1  UNL1       -0.0802
     19 C         143.7480  144.7164  164.1204 C.3     1  UNL1        0.0338
     20 C         144.4622  143.7984  165.0677 C.3     1  UNL1        0.1328
     21 O         145.3357  144.3662  166.1468 O.3     1  UNL1       -0.3801
     22 H         145.3288  145.3346  166.0924 H       1  UNL1        0.2108
     23 C         141.9920  141.5260  168.0650 C.ar    1  UNL1        0.1388
     24 C         141.8325  140.0403  167.9332 C.ar    1  UNL1        0.0384
     25 C         142.4964  139.3122  166.8023 C.ar    1  UNL1        0.0222
     26 C         143.3198  140.0696  165.8032 C.ar    1  UNL1        0.0813
     27 N         143.9837  139.3414  164.6723 N.ar    1  UNL1       -0.2439
     28 C         144.8071  140.0989  163.6732 C.ar    1  UNL1        0.0986
     29 C         144.9666  141.5846  163.8050 C.ar    1  UNL1        0.0187
     30 C         144.3027  142.3128  164.9359 C.ar    1  UNL1        0.0073
     31 C         143.4793  141.5553  165.9350 C.ar    1  UNL1        0.0190
     32 C         142.8153  142.2834  167.0659 C.ar    1  UNL1        0.0382
     33 C         141.5622  141.8150  170.6109 C.3     1  UNL1        0.2525
     34 O         141.3280  142.2541  169.1960 O.3     1  UNL1       -0.4714
@<TRIPOS>UNITY_ATOM_ATTR
9 1
charge -1
@<TRIPOS>BOND
     1    33    34    1
     2    34    23    1
     3    23    24   ar
     4    24    25   ar
     5    25    26   ar
     6    26    27   ar
     7    27    28   ar
     8    28    29   ar
     9    29    30   ar
    10    30    20    1
    11    20    21    1
    12    20    19    1
    13    19     1    1
    14     2     1    1
    15     2     3    1
    16     3     4    1
    17     4     5    1
    18     5    11    1
    19    11    12    1
    20    12    13    1
    21    13    14    1
    22    14    15   ar
    23    15    16   ar
    24    16    17   ar
    25    17    18   ar
    26     5     6    1
    27     6     7    1
    28     7     8    1
    29     8     9   ar
    30     8    10   ar
    31    30    31   ar
    32    31    32   ar
    33    32    23   ar
    34    31    26   ar
    35     7     2    1
    36    18    14   ar
    37    21    22    1
@<TRIPOS>MOLECULE
*****
 34 37 0 0 0
SMALL
GASTEIGER

@<TRIPOS>ATOM
      1 C         140.8724  137.0481  163.4441 C.3     1  UNL1        0.0033
      2 C         142.0270  137.9930  163.5982 C.3     1  UNL1        0.0080
      3 C         142.5259  138.3509  164.9668 C.3     1  UNL1        0.0177
      4 C         143.6805  139.2959  165.1209 C.3     1  UNL1        0.0721
      5 N         144.3364  139.8830  163.9063 N.3     1  UNL1       -0.2716
      6 C         143.8376  139.5251  162.5377 C.3     1  UNL1        0.0776
      7 C         142.6829  138.5801  162.3836 C.3     1  UNL1        0.0525
      8 C         142.1841  138.2223  161.0150 C.2     1  UNL1        0.0513
      9 O         140.9664  138.8996  160.4598 O.co2   1  UNL1       -0.5491
     10 O         142.9031  137.1871  160.2016 O.co2   1  UNL1       -0.5491
     11 C         145.4911  140.8279  164.0604 C.3     1  UNL1        0.0842
     12 C         145.3099  142.2878  163.7666 C.3     1  UNL1        0.0800
     13 S         144.3058  143.0895  164.5404 S.3     1  UNL1       -0.1058
     14 C         143.1226  143.6879  163.8389 C.ar    1  UNL1        0.0546
     15 C         142.6022  145.0829  164.0212 C.ar    1  UNL1        0.0132
     16 C         141.4101  145.2535  163.1269 C.ar    1  UNL1        0.0080
     17 C         141.1937  143.9639  162.3919 C.ar    1  UNL1        0.0359
     18 S         142.2521  142.9963  162.8319 S.2     1  UNL1       -0.0802
     19 C         139.4797  137.5841  163.2918 C.3     1  UNL1        0.0338
     20 C         138.8507  138.3656  164.4071 C.3     1  UNL1        0.1328
     21 O         138.4334  137.6692  165.6684 O.3     1  UNL1       -0.3801
     22 H         138.6393  136.7239  165.5991 H       1  UNL1        0.2108
     23 C         140.9307  141.2226  167.1930 C.ar    1  UNL1        0.1388
     24 C         140.7191  142.7004  167.0469 C.ar    1  UNL1        0.0384
     25 C         139.8142  143.2258  165.9723 C.ar    1  UNL1        0.0222
     26 C         139.1209  142.2735  165.0436 C.ar    1  UNL1        0.0813
     27 N         138.2159  142.7990  163.9689 N.ar    1  UNL1       -0.2439
     28 C         137.5226  141.8467  163.0403 C.ar    1  UNL1        0.0986
     29 C         137.7342  140.3688  163.1864 C.ar    1  UNL1        0.0187
     30 C         138.6391  139.8434  164.2610 C.ar    1  UNL1        0.0073
     31 C         139.3325  140.7958  165.1897 C.ar    1  UNL1        0.0190
     32 C         140.2374  140.2703  166.2644 C.ar    1  UNL1        0.0382
     33 C         141.2646  139.9138  169.4124 C.3     1  UNL1        0.2525
     34 O         141.8357  140.6971  168.2677 O.3     1  UNL1       -0.4714
@<TRIPOS>UNITY_ATOM_ATTR
9 1
charge -1
@<TRIPOS>BOND
     1    33    34    1
     2    34    23    1
     3    23    24   ar
     4    24    25   ar
     5    25    26   ar
     6    26    27   ar
     7    27    28   ar
     8    28    29   ar
     9    29    30   ar
    10    30    20    1
    11    20    21    1
    12    20    19    1
    13    19     1    1
    14     2     1    1
    15     2     3    1
    16     3     4    1
    17     4     5    1
    18     5    11    1
    19    11    12    1
    20    12    13    1
    21    13    14    1
    22    14    15   ar
    23    15    16   ar
    24    16    17   ar
    25    17    18   ar
    26     5     6    1
    27     6     7    1
    28     7     8    1
    29     8     9   ar
    30     8    10   ar
    31    30    31   ar
    32    31    32   ar
    33    32    23   ar
    34    31    26   ar
    35     7     2    1
    36    18    14   ar
    37    21    22    1
@<TRIPOS>MOLECULE
*****
 34 37 0 0 0
SMALL
GASTEIGER

@<TRIPOS>ATOM
      1 C         140.6289  137.4883  164.8713 C.3     1  UNL1        0.0033
      2 C         141.3202  138.2131  163.7548 C.3     1  UNL1        0.0080
      3 C         140.8028  138.0971  162.3516 C.3     1  UNL1        0.0177
      4 C         141.4941  138.8219  161.2350 C.3     1  UNL1        0.0721
      5 N         142.7028  139.6627  161.5216 N.3     1  UNL1       -0.2716
      6 C         143.2202  139.7787  162.9247 C.3     1  UNL1        0.0776
      7 C         142.5289  139.0538  164.0413 C.3     1  UNL1        0.0525
      8 C         143.0464  139.1698  165.4444 C.2     1  UNL1        0.0513
      9 O         143.5831  137.9589  166.1483 O.co2   1  UNL1       -0.5491
     10 O         143.0271  140.4968  166.1436 O.co2   1  UNL1       -0.5491
     11 C         143.3940  140.3875  160.4050 C.3     1  UNL1        0.0842
     12 C         143.9923  141.7417  160.6468 C.3     1  UNL1        0.0800
     13 S         143.1173  142.9600  160.6411 S.3     1  UNL1       -0.1058
     14 C         142.9992  143.8043  161.8753 C.ar    1  UNL1        0.0546
     15 C         144.1310  144.2360  162.7600 C.ar    1  UNL1        0.0132
     16 C         143.5598  145.0637  163.8729 C.ar    1  UNL1        0.0080
     17 C         142.0749  145.1436  163.6761 C.ar    1  UNL1        0.0359
     18 S         141.7284  144.3652  162.4415 S.2     1  UNL1       -0.0802
     19 C         139.1305  137.4638  164.9353 C.3     1  UNL1        0.0338
     20 C         138.3964  138.5065  165.7252 C.3     1  UNL1        0.1328
     21 O         137.3604  138.0954  166.7291 O.3     1  UNL1       -0.3801
     22 H         137.2893  137.1282  166.7428 H       1  UNL1        0.2108
     23 C         140.7728  140.7862  168.7920 C.ar    1  UNL1        0.1388
     24 C         141.0747  142.2398  168.5780 C.ar    1  UNL1        0.0384
     25 C         140.5844  142.9336  167.3418 C.ar    1  UNL1        0.0222
     26 C         139.7922  142.1737  166.3195 C.ar    1  UNL1        0.0813
     27 N         139.3019  142.8674  165.0832 N.ar    1  UNL1       -0.2439
     28 C         138.5098  142.1075  164.0610 C.ar    1  UNL1        0.0986
     29 C         138.2079  140.6538  164.2749 C.ar    1  UNL1        0.0187
     30 C         138.6982  139.9601  165.5112 C.ar    1  UNL1        0.0073
     31 C         139.4904  140.7201  166.5335 C.ar    1  UNL1        0.0190
     32 C         139.9807  140.0263  167.7697 C.ar    1  UNL1        0.0382
     33 C         141.8095  140.8948  171.1718 C.3     1  UNL1        0.2525
     34 O         141.2631  140.0925  170.0283 O.3     1  UNL1       -0.4714
@<TRIPOS>UNITY_ATOM_ATTR
9 1
charge -1
@<TRIPOS>BOND
     1    33    34    1
     2    34    23    1
     3    23    24   ar
     4    24    25   ar
     5    25    26   ar
     6    26    27   ar
     7    27    28   ar
     8    28    29   ar
     9    29    30   ar
    10    30    20    1
    11    20    21    1
    12    20    19    1
    13    19     1    1
    14     2     1    1
    15     2     3    1
    16     3     4    1
    17     4     5    1
    18     5    11    1
    19    11    12    1
    20    12    13    1
    21    13    14    1
    22    14    15   ar
    23    15    16   ar
    24    16    17   ar
    25    17    18   ar
    26     5     6    1
    27     6     7    1
    28     7     8    1
    29     8     9   ar
    30     8    10   ar
    31    30    31   ar
    32    31    32   ar
    33    32    23   ar
    34    31    26   ar
    35     7     2    1
    36    18    14   ar
    37    21    22    1
@<TRIPOS>MOLECULE
*****
 34 37 0 0 0
SMALL
GASTEIGER

@<TRIPOS>ATOM
      1 C         144.7556  139.3822  163.6363 C.3     1  UNL1        0.0033
      2 C         144.1669  140.7208  163.3024 C.3     1  UNL1        0.0080
      3 C         144.4137  141.8945  164.2033 C.3     1  UNL1        0.0177
      4 C         143.8250  143.2331  163.8694 C.3     1  UNL1        0.0721
      5 N         142.9895  143.3981  162.6346 N.3     1  UNL1       -0.2716
      6 C         142.7427  142.2245  161.7337 C.3     1  UNL1        0.0776
      7 C         143.3315  140.8858  162.0675 C.3     1  UNL1        0.0525
      8 C         143.0847  139.7122  161.1666 C.2     1  UNL1        0.0513
      9 O         144.1313  139.2931  160.1772 O.co2   1  UNL1       -0.5491
     10 O         141.7914  138.9576  161.2552 O.co2   1  UNL1       -0.5491
     11 C         142.4008  144.7367  162.3006 C.3     1  UNL1        0.0842
     12 C         141.1610  144.8223  161.4606 C.3     1  UNL1        0.0800
     13 S         139.8716  145.2850  162.0715 S.3     1  UNL1       -0.1058
     14 C         138.9811  144.3047  162.7760 C.ar    1  UNL1        0.0546
     15 C         138.6038  144.3413  164.2273 C.ar    1  UNL1        0.0132
     16 C         137.7012  143.1750  164.5011 C.ar    1  UNL1        0.0080
     17 C         137.5208  142.4174  163.2191 C.ar    1  UNL1        0.0359
     18 S         138.3119  143.1157  162.1528 S.2     1  UNL1       -0.0802
     19 C         145.0661  139.0340  165.0619 C.3     1  UNL1        0.0338
     20 C         144.0288  138.3637  165.9132 C.3     1  UNL1        0.1328
     21 O         144.4436  137.3712  166.9586 O.3     1  UNL1       -0.3801
     22 H         145.4093  137.2797  166.9525 H       1  UNL1        0.2108
     23 C         142.2160  141.9190  167.9925 C.ar    1  UNL1        0.1388
     24 C         140.7639  142.2413  167.7985 C.ar    1  UNL1        0.0384
     25 C         139.9161  141.3785  166.9114 C.ar    1  UNL1        0.0222
     26 C         140.5204  140.1934  166.2184 C.ar    1  UNL1        0.0813
     27 N         139.6726  139.3306  165.3313 N.ar    1  UNL1       -0.2439
     28 C         140.2769  138.1456  164.6383 C.ar    1  UNL1        0.0986
     29 C         141.7290  137.8232  164.8322 C.ar    1  UNL1        0.0187
     30 C         142.5768  138.6860  165.7193 C.ar    1  UNL1        0.0073
     31 C         141.9724  139.8712  166.4124 C.ar    1  UNL1        0.0190
     32 C         142.8202  140.7339  167.2994 C.ar    1  UNL1        0.0382
     33 C         142.7928  142.8362  170.3538 C.3     1  UNL1        0.2525
     34 O         143.0637  142.7818  168.8795 O.3     1  UNL1       -0.4714
@<TRIPOS>UNITY_ATOM_ATTR
9 1
charge -1
@<TRIPOS>BOND
     1    33    34    1
     2    34    23    1
     3    23    24   ar
     4    24    25   ar
     5    25    26   ar
     6    26    27   ar
     7    27    28   ar
     8    28    29   ar
     9    29    30   ar
    10    30    20    1
    11    20    21    1
    12    20    19    1
    13    19     1    1
    14     2     1    1
    15     2     3    1
    16     3     4    1
    17     4     5    1
    18     5    11    1
    19    11    12    1
    20    12    13    1
    21    13    14    1
    22    14    15   ar
    23    15    16   ar
    24    16    17   ar
    25    17    18   ar
    26     5     6    1
    27     6     7    1
    28     7     8    1
    29     8     9   ar
    30     8    10   ar
    31    30    31   ar
    32    31    32   ar
    33    32    23   ar
    34    31    26   ar
    35     7     2    1
    36    18    14   ar
    37    21    22    1
