@<TRIPOS>MOLECULE
*****
 25 28 0 0 0
SMALL
GASTEIGER

@<TRIPOS>ATOM
      1 C         142.3266  138.0612  159.8315 C.3     1  UNL1        0.0826
      2 C         140.8777  138.3630  160.0754 C.3     1  UNL1        0.0309
      3 C         140.3643  138.4913  161.4790 C.3     1  UNL1        0.0954
      4 N         141.2998  138.3177  162.6386 N.am    1  UNL1       -0.2642
      5 C         140.7864  138.4460  164.0422 C.2     1  UNL1        0.3039
      6 O         141.7219  138.2724  165.2018 O.2     1  UNL1       -0.2526
      7 N         139.3375  138.7478  164.2861 N.am    1  UNL1       -0.2901
      8 C         142.7487  138.0159  162.3946 C.3     1  UNL1        0.0954
      9 C         143.2621  137.8876  160.9911 C.3     1  UNL1        0.0309
     10 H         138.7235  138.8617  163.5250 H       1  UNL1        0.1509
     11 C         143.4127  136.1308  155.0382 C.3     1  UNL1        0.0773
     12 C         143.3392  137.0457  156.2247 C.ar    1  UNL1        0.1809
     13 N         143.9210  138.4256  156.3114 N.ar    1  UNL1       -0.0606
     14 O         143.6125  138.9739  157.6731 O.2     1  UNL1       -0.3374
     15 C         142.8400  137.9329  158.4279 C.ar    1  UNL1        0.2359
     16 N         142.6712  136.7412  157.5328 N.ar    1  UNL1       -0.1949
     17 C         138.8240  138.8761  165.6897 C.3     1  UNL1        0.0774
     18 C         137.8735  138.4505  166.7691 C.3     1  UNL1        0.0259
     19 C         138.8853  139.5238  167.0413 C.3     1  UNL1        0.0420
     20 C         139.5049  140.5174  167.9786 C.ar    1  UNL1       -0.0208
     21 C         140.2913  141.6729  167.4342 C.ar    1  UNL1       -0.0042
     22 C         140.9109  142.6666  168.3716 C.ar    1  UNL1       -0.0003
     23 C         140.7442  142.5047  169.8535 C.ar    1  UNL1       -0.0000
     24 C         139.9579  141.3492  170.3980 C.ar    1  UNL1       -0.0003
     25 C         139.3382  140.3555  169.4605 C.ar    1  UNL1       -0.0042
@<TRIPOS>BOND
     1    11    12    1
     2    12    13   ar
     3    13    14   ar
     4    14    15   ar
     5    15     1    1
     6     1     2    1
     7     2     3    1
     8     3     4    1
     9     4     5   am
    10     5     6    2
    11     5     7   am
    12     7    17    1
    13    17    18    1
    14    18    19    1
    15    19    20    1
    16    20    21   ar
    17    21    22   ar
    18    22    23   ar
    19    23    24   ar
    20    24    25   ar
    21     4     8    1
    22     8     9    1
    23    15    16   ar
    24    16    12   ar
    25     9     1    1
    26    19    17    1
    27    25    20   ar
    28     7    10    1
@<TRIPOS>MOLECULE
*****
 25 28 0 0 0
SMALL
GASTEIGER

@<TRIPOS>ATOM
      1 C         142.8524  138.9199  165.2427 C.3     1  UNL1        0.0826
      2 C         141.8881  138.1040  164.4338 C.3     1  UNL1        0.0309
      3 C         142.0747  137.9749  162.9511 C.3     1  UNL1        0.0954
      4 N         143.2255  138.6617  162.2773 N.am    1  UNL1       -0.2642
      5 C         143.4121  138.5325  160.7945 C.2     1  UNL1        0.3039
      6 O         144.5629  139.2194  160.1208 O.2     1  UNL1       -0.2526
      7 N         142.4478  137.7166  159.9856 N.am    1  UNL1       -0.2901
      8 C         144.1898  139.4776  163.0863 C.3     1  UNL1        0.0954
      9 C         144.0032  139.6067  164.5690 C.3     1  UNL1        0.0309
     10 H         141.6925  137.2658  160.4278 H       1  UNL1        0.1509
     11 C         140.9358  140.3177  169.9602 C.3     1  UNL1        0.0773
     12 C         141.7849  139.6915  168.8939 C.ar    1  UNL1        0.1809
     13 N         142.9728  138.8040  169.1206 N.ar    1  UNL1       -0.0606
     14 O         143.5172  138.4070  167.7805 O.2     1  UNL1       -0.3374
     15 C         142.6658  139.0491  166.7255 C.ar    1  UNL1        0.2359
     16 N         141.5952  139.8430  167.4136 N.ar    1  UNL1       -0.1949
     17 C         142.6344  137.5875  158.5028 C.3     1  UNL1        0.0774
     18 C         142.8559  138.2210  157.1613 C.3     1  UNL1        0.0259
     19 C         142.7359  136.7302  157.2760 C.3     1  UNL1        0.0420
     20 C         142.7253  135.3747  156.6340 C.ar    1  UNL1       -0.0208
     21 C         141.6471  135.0172  155.6544 C.ar    1  UNL1       -0.0042
     22 C         141.6364  133.6616  155.0124 C.ar    1  UNL1       -0.0003
     23 C         142.7040  132.6634  155.3500 C.ar    1  UNL1       -0.0000
     24 C         143.7822  133.0208  156.3297 C.ar    1  UNL1       -0.0003
     25 C         143.7928  134.3765  156.9717 C.ar    1  UNL1       -0.0042
@<TRIPOS>BOND
     1    11    12    1
     2    12    13   ar
     3    13    14   ar
     4    14    15   ar
     5    15     1    1
     6     1     2    1
     7     2     3    1
     8     3     4    1
     9     4     5   am
    10     5     6    2
    11     5     7   am
    12     7    17    1
    13    17    18    1
    14    18    19    1
    15    19    20    1
    16    20    21   ar
    17    21    22   ar
    18    22    23   ar
    19    23    24   ar
    20    24    25   ar
    21     4     8    1
    22     8     9    1
    23    15    16   ar
    24    16    12   ar
    25     9     1    1
    26    19    17    1
    27    25    20   ar
    28     7    10    1
@<TRIPOS>MOLECULE
*****
 25 28 0 0 0
SMALL
GASTEIGER

@<TRIPOS>ATOM
      1 C         141.8165  138.0513  159.2916 C.3     1  UNL1        0.0826
      2 C         142.4332  137.7945  160.6346 C.3     1  UNL1        0.0309
      3 C         141.6459  138.0572  161.8840 C.3     1  UNL1        0.0954
      4 N         140.2419  138.5767  161.7904 N.am    1  UNL1       -0.2642
      5 C         139.4546  138.8394  163.0399 C.2     1  UNL1        0.3039
      6 O         138.0505  139.3590  162.9464 O.2     1  UNL1       -0.2526
      7 N         140.0713  138.5826  164.3829 N.am    1  UNL1       -0.2901
      8 C         139.6252  138.8336  160.4475 C.3     1  UNL1        0.0954
      9 C         140.4125  138.5709  159.1981 C.3     1  UNL1        0.0309
     10 H         140.9928  138.2416  164.4443 H       1  UNL1        0.1509
     11 C         143.7760  135.6915  154.9936 C.3     1  UNL1        0.0773
     12 C         143.5045  136.7039  156.0666 C.ar    1  UNL1        0.1809
     13 N         144.1263  138.0650  156.1722 N.ar    1  UNL1       -0.0606
     14 O         143.5696  138.7353  157.3932 O.2     1  UNL1       -0.3374
     15 C         142.6039  137.7886  158.0421 C.ar    1  UNL1        0.2359
     16 N         142.5636  136.5332  157.2222 N.ar    1  UNL1       -0.1949
     17 C         139.2840  138.8453  165.6324 C.3     1  UNL1        0.0774
     18 C         138.0935  138.5648  166.5007 C.3     1  UNL1        0.0259
     19 C         139.1108  139.5808  166.9282 C.3     1  UNL1        0.0420
     20 C         139.5982  140.5920  167.9231 C.ar    1  UNL1       -0.0208
     21 C         140.3300  141.8141  167.4532 C.ar    1  UNL1       -0.0042
     22 C         140.8174  142.8253  168.4481 C.ar    1  UNL1       -0.0003
     23 C         140.5730  142.6144  169.9130 C.ar    1  UNL1       -0.0000
     24 C         139.8412  141.3922  170.3829 C.ar    1  UNL1       -0.0003
     25 C         139.3538  140.3810  169.3879 C.ar    1  UNL1       -0.0042
@<TRIPOS>BOND
     1    11    12    1
     2    12    13   ar
     3    13    14   ar
     4    14    15   ar
     5    15     1    1
     6     1     2    1
     7     2     3    1
     8     3     4    1
     9     4     5   am
    10     5     6    2
    11     5     7   am
    12     7    17    1
    13    17    18    1
    14    18    19    1
    15    19    20    1
    16    20    21   ar
    17    21    22   ar
    18    22    23   ar
    19    23    24   ar
    20    24    25   ar
    21     4     8    1
    22     8     9    1
    23    15    16   ar
    24    16    12   ar
    25     9     1    1
    26    19    17    1
    27    25    20   ar
    28     7    10    1
@<TRIPOS>MOLECULE
*****
 25 28 0 0 0
SMALL
GASTEIGER

@<TRIPOS>ATOM
      1 C         140.6371  144.2979  160.7743 C.3     1  UNL1        0.0826
      2 C         140.2844  142.8401  160.7915 C.3     1  UNL1        0.0309
      3 C         139.9979  142.1531  162.0938 C.3     1  UNL1        0.0954
      4 N         140.0641  142.9239  163.3788 N.am    1  UNL1       -0.2642
      5 C         139.7775  142.2369  164.6811 C.2     1  UNL1        0.3039
      6 O         139.8437  143.0077  165.9662 O.2     1  UNL1       -0.2526
      7 N         139.4248  140.7791  164.6983 N.am    1  UNL1       -0.2901
      8 C         140.4167  144.3818  163.3617 C.3     1  UNL1        0.0954
      9 C         140.7033  145.0687  162.0594 C.3     1  UNL1        0.0309
     10 H         139.3814  140.2732  163.8549 H       1  UNL1        0.1509
     11 C         139.9960  146.6876  156.1096 C.3     1  UNL1        0.0773
     12 C         140.6290  146.0833  157.3279 C.ar    1  UNL1        0.1809
     13 N         142.1003  146.0010  157.6082 N.ar    1  UNL1       -0.0606
     14 O         142.2824  145.3221  158.9333 O.2     1  UNL1       -0.3374
     15 C         140.9236  144.9849  159.4720 C.ar    1  UNL1        0.2359
     16 N         139.9018  145.4554  158.4798 N.ar    1  UNL1       -0.1949
     17 C         139.1383  140.0920  166.0006 C.3     1  UNL1        0.0774
     18 C         138.3199  139.1293  166.8089 C.3     1  UNL1        0.0259
     19 C         139.4604  139.8648  167.4479 C.3     1  UNL1        0.0420
     20 C         140.3048  140.1582  168.6524 C.ar    1  UNL1       -0.0208
     21 C         139.7104  140.8746  169.8286 C.ar    1  UNL1       -0.0042
     22 C         140.5548  141.1680  171.0331 C.ar    1  UNL1       -0.0003
     23 C         141.9937  140.7451  171.0614 C.ar    1  UNL1       -0.0000
     24 C         142.5881  140.0287  169.8852 C.ar    1  UNL1       -0.0003
     25 C         141.7436  139.7353  168.6806 C.ar    1  UNL1       -0.0042
@<TRIPOS>BOND
     1    11    12    1
     2    12    13   ar
     3    13    14   ar
     4    14    15   ar
     5    15     1    1
     6     1     2    1
     7     2     3    1
     8     3     4    1
     9     4     5   am
    10     5     6    2
    11     5     7   am
    12     7    17    1
    13    17    18    1
    14    18    19    1
    15    19    20    1
    16    20    21   ar
    17    21    22   ar
    18    22    23   ar
    19    23    24   ar
    20    24    25   ar
    21     4     8    1
    22     8     9    1
    23    15    16   ar
    24    16    12   ar
    25     9     1    1
    26    19    17    1
    27    25    20   ar
    28     7    10    1
@<TRIPOS>MOLECULE
*****
 25 28 0 0 0
SMALL
GASTEIGER

@<TRIPOS>ATOM
      1 C         141.7172  144.1468  160.5500 C.3     1  UNL1        0.0826
      2 C         142.0616  142.6869  160.5468 C.3     1  UNL1        0.0309
      3 C         142.2542  141.9590  161.8441 C.3     1  UNL1        0.0954
      4 N         142.1024  142.6910  163.1445 N.am    1  UNL1       -0.2642
      5 C         142.2950  141.9630  164.4419 C.2     1  UNL1        0.3039
      6 O         142.1432  142.6950  165.7423 O.2     1  UNL1       -0.2526
      7 N         142.6393  140.5031  164.4387 N.am    1  UNL1       -0.2901
      8 C         141.7580  144.1509  163.1477 C.3     1  UNL1        0.0954
      9 C         141.5655  144.8788  161.8504 C.3     1  UNL1        0.0309
     10 H         142.7389  140.0227  163.5852 H       1  UNL1        0.1509
     11 C         139.4754  146.7120  156.5157 C.3     1  UNL1        0.0773
     12 C         140.4942  146.0539  157.3983 C.ar    1  UNL1        0.1809
     13 N         141.9624  145.9362  157.1143 N.ar    1  UNL1       -0.0606
     14 O         142.5992  145.2075  158.2603 O.2     1  UNL1       -0.3374
     15 C         141.5246  144.8748  159.2526 C.ar    1  UNL1        0.2359
     16 N         140.2237  145.3979  158.7198 N.ar    1  UNL1       -0.1949
     17 C         142.8319  139.7751  165.7361 C.3     1  UNL1        0.0774
     18 C         143.2916  138.5620  166.4891 C.3     1  UNL1        0.0259
     19 C         142.7059  139.7273  167.2300 C.3     1  UNL1        0.0420
     20 C         142.2949  140.3725  168.5202 C.ar    1  UNL1       -0.0208
     21 C         141.1575  139.8025  169.3149 C.ar    1  UNL1       -0.0042
     22 C         140.7465  140.4477  170.6051 C.ar    1  UNL1       -0.0003
     23 C         141.4729  141.6630  171.1008 C.ar    1  UNL1       -0.0000
     24 C         142.6103  142.2329  170.3061 C.ar    1  UNL1       -0.0003
     25 C         143.0213  141.5877  169.0158 C.ar    1  UNL1       -0.0042
@<TRIPOS>BOND
     1    11    12    1
     2    12    13   ar
     3    13    14   ar
     4    14    15   ar
     5    15     1    1
     6     1     2    1
     7     2     3    1
     8     3     4    1
     9     4     5   am
    10     5     6    2
    11     5     7   am
    12     7    17    1
    13    17    18    1
    14    18    19    1
    15    19    20    1
    16    20    21   ar
    17    21    22   ar
    18    22    23   ar
    19    23    24   ar
    20    24    25   ar
    21     4     8    1
    22     8     9    1
    23    15    16   ar
    24    16    12   ar
    25     9     1    1
    26    19    17    1
    27    25    20   ar
    28     7    10    1
@<TRIPOS>MOLECULE
*****
 25 28 0 0 0
SMALL
GASTEIGER

@<TRIPOS>ATOM
      1 C         138.6700  140.1005  159.2869 C.3     1  UNL1        0.0826
      2 C         138.0877  141.0010  160.3357 C.3     1  UNL1        0.0309
      3 C         138.1124  140.5872  161.7773 C.3     1  UNL1        0.0954
      4 N         138.7193  139.2729  162.1700 N.am    1  UNL1       -0.2642
      5 C         138.7440  138.8591  163.6117 C.2     1  UNL1        0.3039
      6 O         139.3509  137.5448  164.0044 O.2     1  UNL1       -0.2526
      7 N         138.1617  139.7596  164.6605 N.am    1  UNL1       -0.2901
      8 C         139.3016  138.3724  161.1212 C.3     1  UNL1        0.0954
      9 C         139.2769  138.7862  159.6797 C.3     1  UNL1        0.0309
     10 H         137.7633  140.6222  164.4027 H       1  UNL1        0.1509
     11 C         137.1154  140.8032  154.2899 C.3     1  UNL1        0.0773
     12 C         137.9308  140.8373  155.5484 C.ar    1  UNL1        0.1809
     13 N         139.2842  141.4649  155.7054 N.ar    1  UNL1       -0.0606
     14 O         139.7258  141.2653  157.1250 O.2     1  UNL1       -0.3374
     15 C         138.6454  140.5143  157.8453 C.ar    1  UNL1        0.2359
     16 N         137.5360  140.2499  156.8709 N.ar    1  UNL1       -0.1949
     17 C         138.1863  139.3457  166.1021 C.3     1  UNL1        0.0774
     18 C         137.6210  138.5357  167.2309 C.3     1  UNL1        0.0259
     19 C         138.7942  139.4391  167.4702 C.3     1  UNL1        0.0420
     20 C         139.8226  140.0146  168.3982 C.ar    1  UNL1       -0.0208
     21 C         139.4067  140.5641  169.7305 C.ar    1  UNL1       -0.0042
     22 C         140.4351  141.1397  170.6585 C.ar    1  UNL1       -0.0003
     23 C         141.8794  141.1657  170.2542 C.ar    1  UNL1       -0.0000
     24 C         142.2952  140.6162  168.9219 C.ar    1  UNL1       -0.0003
     25 C         141.2668  140.0406  167.9939 C.ar    1  UNL1       -0.0042
@<TRIPOS>BOND
     1    11    12    1
     2    12    13   ar
     3    13    14   ar
     4    14    15   ar
     5    15     1    1
     6     1     2    1
     7     2     3    1
     8     3     4    1
     9     4     5   am
    10     5     6    2
    11     5     7   am
    12     7    17    1
    13    17    18    1
    14    18    19    1
    15    19    20    1
    16    20    21   ar
    17    21    22   ar
    18    22    23   ar
    19    23    24   ar
    20    24    25   ar
    21     4     8    1
    22     8     9    1
    23    15    16   ar
    24    16    12   ar
    25     9     1    1
    26    19    17    1
    27    25    20   ar
    28     7    10    1
@<TRIPOS>MOLECULE
*****
 25 28 0 0 0
SMALL
GASTEIGER

@<TRIPOS>ATOM
      1 C         140.1913  138.8038  164.7445 C.3     1  UNL1        0.0826
      2 C         139.4419  139.1317  163.4872 C.3     1  UNL1        0.0309
      3 C         140.0693  138.8695  162.1502 C.3     1  UNL1        0.0954
      4 N         141.4460  138.2793  162.0705 N.am    1  UNL1       -0.2642
      5 C         142.0734  138.0170  160.7334 C.2     1  UNL1        0.3039
      6 O         143.4501  137.4269  160.6538 O.2     1  UNL1       -0.2526
      7 N         141.3240  138.3450  159.4761 N.am    1  UNL1       -0.2901
      8 C         142.1954  137.9514  163.3278 C.3     1  UNL1        0.0954
      9 C         141.5680  138.2136  164.6648 C.3     1  UNL1        0.0309
     10 H         140.4204  138.7323  159.5284 H       1  UNL1        0.1509
     11 C         139.3501  140.6379  169.6240 C.3     1  UNL1        0.0773
     12 C         139.1773  139.9091  168.3244 C.ar    1  UNL1        0.1809
     13 N         138.0198  139.0300  167.9537 N.ar    1  UNL1       -0.0606
     14 O         138.2588  138.5090  166.5676 O.2     1  UNL1       -0.3374
     15 C         139.5640  139.0660  166.0816 C.ar    1  UNL1        0.2359
     16 N         140.1316  139.9313  167.1674 N.ar    1  UNL1       -0.1949
     17 C         141.9514  138.0827  158.1390 C.3     1  UNL1        0.0774
     18 C         142.6635  138.5836  156.9176 C.3     1  UNL1        0.0259
     19 C         142.3258  137.1277  157.0447 C.3     1  UNL1        0.0420
     20 C         142.3470  135.7357  156.4862 C.ar    1  UNL1       -0.0208
     21 C         143.3037  134.7206  157.0381 C.ar    1  UNL1       -0.0042
     22 C         143.3249  133.3287  156.4797 C.ar    1  UNL1       -0.0003
     23 C         142.3895  132.9516  155.3693 C.ar    1  UNL1       -0.0000
     24 C         141.4329  133.9667  154.8174 C.ar    1  UNL1       -0.0003
     25 C         141.4117  135.3587  155.3759 C.ar    1  UNL1       -0.0042
@<TRIPOS>BOND
     1    11    12    1
     2    12    13   ar
     3    13    14   ar
     4    14    15   ar
     5    15     1    1
     6     1     2    1
     7     2     3    1
     8     3     4    1
     9     4     5   am
    10     5     6    2
    11     5     7   am
    12     7    17    1
    13    17    18    1
    14    18    19    1
    15    19    20    1
    16    20    21   ar
    17    21    22   ar
    18    22    23   ar
    19    23    24   ar
    20    24    25   ar
    21     4     8    1
    22     8     9    1
    23    15    16   ar
    24    16    12   ar
    25     9     1    1
    26    19    17    1
    27    25    20   ar
    28     7    10    1
@<TRIPOS>MOLECULE
*****
 25 28 0 0 0
SMALL
GASTEIGER

@<TRIPOS>ATOM
      1 C         143.2265  141.7917  160.1631 C.3     1  UNL1        0.0826
      2 C         142.2298  140.6862  160.3479 C.3     1  UNL1        0.0309
      3 C         142.1761  139.5531  159.3666 C.3     1  UNL1        0.0954
      4 N         143.1192  139.5255  158.2005 N.am    1  UNL1       -0.2642
      5 C         143.0655  138.3923  157.2191 C.2     1  UNL1        0.3039
      6 O         144.0086  138.3647  156.0530 O.2     1  UNL1       -0.2526
      7 N         142.0688  137.2867  157.4038 N.am    1  UNL1       -0.2901
      8 C         144.1160  140.6310  158.0157 C.3     1  UNL1        0.0954
      9 C         144.1696  141.7642  158.9970 C.3     1  UNL1        0.0309
     10 H         141.4498  137.3048  158.1692 H       1  UNL1        0.1509
     11 C         141.7948  145.4661  163.6746 C.3     1  UNL1        0.0773
     12 C         142.6222  144.6139  162.7585 C.ar    1  UNL1        0.1809
     13 N         144.1037  144.7236  162.5508 N.ar    1  UNL1       -0.0606
     14 O         144.5104  143.6798  161.5532 O.2     1  UNL1       -0.3374
     15 C         143.2802  142.9250  161.1445 C.ar    1  UNL1        0.2359
     16 N         142.1133  143.5023  161.8894 N.ar    1  UNL1       -0.1949
     17 C         142.0151  136.1535  156.4225 C.3     1  UNL1        0.0774
     18 C         141.4640  135.5489  155.1652 C.3     1  UNL1        0.0259
     19 C         142.4731  134.7954  155.9800 C.3     1  UNL1        0.0420
     20 C         143.3202  133.5763  156.1949 C.ar    1  UNL1       -0.0208
     21 C         144.1231  133.4334  157.4539 C.ar    1  UNL1       -0.0042
     22 C         144.9702  132.2143  157.6688 C.ar    1  UNL1       -0.0003
     23 C         145.0144  131.1381  156.6248 C.ar    1  UNL1       -0.0000
     24 C         144.2114  131.2810  155.3659 C.ar    1  UNL1       -0.0003
     25 C         143.3643  132.5002  155.1510 C.ar    1  UNL1       -0.0042
@<TRIPOS>BOND
     1    11    12    1
     2    12    13   ar
     3    13    14   ar
     4    14    15   ar
     5    15     1    1
     6     1     2    1
     7     2     3    1
     8     3     4    1
     9     4     5   am
    10     5     6    2
    11     5     7   am
    12     7    17    1
    13    17    18    1
    14    18    19    1
    15    19    20    1
    16    20    21   ar
    17    21    22   ar
    18    22    23   ar
    19    23    24   ar
    20    24    25   ar
    21     4     8    1
    22     8     9    1
    23    15    16   ar
    24    16    12   ar
    25     9     1    1
    26    19    17    1
    27    25    20   ar
    28     7    10    1
@<TRIPOS>MOLECULE
*****
 25 28 0 0 0
SMALL
GASTEIGER

@<TRIPOS>ATOM
      1 C         137.4761  138.9847  169.7633 C.3     1  UNL1        0.0826
      2 C         137.1106  138.4043  168.4293 C.3     1  UNL1        0.0309
      3 C         137.8963  138.7789  167.2077 C.3     1  UNL1        0.0954
      4 N         139.0475  139.7339  167.3201 N.am    1  UNL1       -0.2642
      5 C         139.8332  140.1085  166.0985 C.2     1  UNL1        0.3039
      6 O         140.9844  141.0636  166.2109 O.2     1  UNL1       -0.2526
      7 N         139.4678  139.5281  164.7645 N.am    1  UNL1       -0.2901
      8 C         139.4130  140.3144  168.6541 C.3     1  UNL1        0.0954
      9 C         138.6272  139.9398  169.8756 C.3     1  UNL1        0.0309
     10 H         138.7122  138.9012  164.6908 H       1  UNL1        0.1509
     11 C         135.4565  136.2193  173.7826 C.3     1  UNL1        0.0773
     12 C         135.7621  137.3390  172.8324 C.ar    1  UNL1        0.1809
     13 N         135.2004  138.7285  172.8972 N.ar    1  UNL1       -0.0606
     14 O         135.7741  139.5140  171.7554 O.2     1  UNL1       -0.3374
     15 C         136.6903  138.6101  170.9849 C.ar    1  UNL1        0.2359
     16 N         136.6829  137.2659  171.6506 N.ar    1  UNL1       -0.1949
     17 C         140.2535  139.9027  163.5429 C.3     1  UNL1        0.0774
     18 C         140.3434  140.0598  162.0539 C.3     1  UNL1        0.0259
     19 C         141.5245  140.3943  162.9160 C.3     1  UNL1        0.0420
     20 C         142.9401  140.8713  163.0518 C.ar    1  UNL1       -0.0208
     21 C         143.3628  142.1586  162.4084 C.ar    1  UNL1       -0.0042
     22 C         144.7784  142.6356  162.5442 C.ar    1  UNL1       -0.0003
     23 C         145.7714  141.8252  163.3235 C.ar    1  UNL1       -0.0000
     24 C         145.3487  140.5378  163.9670 C.ar    1  UNL1       -0.0003
     25 C         143.9330  140.0609  163.8311 C.ar    1  UNL1       -0.0042
@<TRIPOS>BOND
     1    11    12    1
     2    12    13   ar
     3    13    14   ar
     4    14    15   ar
     5    15     1    1
     6     1     2    1
     7     2     3    1
     8     3     4    1
     9     4     5   am
    10     5     6    2
    11     5     7   am
    12     7    17    1
    13    17    18    1
    14    18    19    1
    15    19    20    1
    16    20    21   ar
    17    21    22   ar
    18    22    23   ar
    19    23    24   ar
    20    24    25   ar
    21     4     8    1
    22     8     9    1
    23    15    16   ar
    24    16    12   ar
    25     9     1    1
    26    19    17    1
    27    25    20   ar
    28     7    10    1
