@<TRIPOS>MOLECULE
*****
 36 41 0 0 0
SMALL
GASTEIGER

@<TRIPOS>ATOM
      1 C         140.1526  144.0609  157.0323 C.2     1  UNL1        0.1012
      2 C         140.8076  144.9817  156.0458 C.2     1  UNL1        0.1182
      3 CL        140.4047  144.9424  154.6014 Cl      1  UNL1       -0.0771
      4 C         141.8651  145.9417  156.5037 C.2     1  UNL1        0.2481
      5 N         142.2680  145.9810  157.9481 N.2     1  UNL1       -0.0293
      6 C         141.6130  145.0602  158.9346 C.2     1  UNL1        0.4105
      7 N         141.8015  144.8728  160.4109 N.2     1  UNL1        0.0120
      8 C         140.8602  143.7969  160.8653 C.2     1  UNL1        0.3751
      9 N         140.0901  143.3193  159.6700 N.2     1  UNL1       -0.0450
     10 C         140.5554  144.1001  158.4767 C.3     1  UNL1        0.3609
     11 N         136.9797  141.1806  155.6586 N.3     1  UNL1       -0.2646
     12 C         138.3396  140.6736  156.0380 C.3     1  UNL1        0.0941
     13 C         139.3971  141.6336  156.4958 C.3     1  UNL1        0.1080
     14 N         139.0950  143.1008  156.5744 N.pl3   1  UNL1       -0.3034
     15 C         137.7352  143.6079  156.1950 C.3     1  UNL1        0.1080
     16 C         136.6776  142.6478  155.7371 C.3     1  UNL1        0.0941
     17 C         135.9222  140.2206  155.2007 C.3     1  UNL1        0.1222
     18 C         130.7801  141.3394  155.6354 C.3     1  UNL1        0.0754
     19 C         132.1628  140.8437  155.9391 C.ar    1  UNL1        0.1546
     20 C         133.3570  140.9545  155.0380 C.ar    1  UNL1        0.0550
     21 C         134.5264  140.3295  155.7393 C.ar    1  UNL1        0.1165
     22 N         134.0550  139.8323  157.0737 N.ar    1  UNL1       -0.0803
     23 O         132.5943  140.1501  157.1972 O.2     1  UNL1       -0.3580
     24 C         140.7146  143.2879  162.2688 C.ar    1  UNL1        0.0882
     25 C         140.9004  141.8283  162.5603 C.ar    1  UNL1        0.0089
     26 C         140.7548  141.3193  163.9638 C.ar    1  UNL1        0.0148
     27 C         140.4234  142.2699  165.0758 C.ar    1  UNL1        0.0479
     28 C         140.2377  143.7296  164.7843 C.ar    1  UNL1        0.0148
     29 C         140.3833  144.2385  163.3808 C.ar    1  UNL1        0.0089
     30 N         140.2778  141.7609  166.4793 N.pl3   1  UNL1       -0.3046
     31 C         139.6213  140.4362  166.7323 C.3     1  UNL1        0.1081
     32 C         139.4757  139.9272  168.1358 C.3     1  UNL1        0.0938
     33 N         139.9867  140.7430  169.2862 N.3     1  UNL1       -0.2686
     34 C         139.8411  140.2340  170.6897 C.3     1  UNL1        0.0897
     35 C         140.6432  142.0677  169.0331 C.3     1  UNL1        0.0938
     36 C         140.7888  142.5767  167.6296 C.3     1  UNL1        0.1081
@<TRIPOS>BOND
     1    18    19    1
     2    19    20   ar
     3    20    21   ar
     4    21    17    1
     5    17    11    1
     6    11    12    1
     7    12    13    1
     8    13    14    1
     9    14     1    1
    10     1     2    2
    11     2     3    1
    12     2     4    1
    13     4     5    2
    14     5     6    1
    15     6     7    2
    16     7     8    1
    17     8    24    1
    18    24    25   ar
    19    25    26   ar
    20    26    27   ar
    21    27    30    1
    22    30    31    1
    23    31    32    1
    24    32    33    1
    25    33    34    1
    26    33    35    1
    27    35    36    1
    28    27    28   ar
    29    28    29   ar
    30     8     9    2
    31     9    10    1
    32    14    15    1
    33    15    16    1
    34    21    22   ar
    35    22    23   ar
    36    23    19   ar
    37    16    11    1
    38    10     1    1
    39    10     6    1
    40    29    24   ar
    41    36    30    1
@<TRIPOS>MOLECULE
*****
 36 41 0 0 0
SMALL
GASTEIGER

@<TRIPOS>ATOM
      1 C         142.3004  140.1746  160.5893 C.2     1  UNL1        0.1012
      2 C         142.9642  141.5119  160.7337 C.2     1  UNL1        0.1182
      3 CL        142.7076  142.3489  161.9518 Cl      1  UNL1       -0.0771
      4 C         143.8846  142.0122  159.6602 C.2     1  UNL1        0.2481
      5 N         144.1412  141.1752  158.4422 N.2     1  UNL1       -0.0293
      6 C         143.4774  139.8378  158.2978 C.2     1  UNL1        0.4105
      7 N         143.5382  138.7985  157.2179 N.2     1  UNL1        0.0120
      8 C         142.6554  137.6559  157.6241 C.2     1  UNL1        0.3751
      9 N         142.0489  137.9890  158.9550 N.2     1  UNL1       -0.0450
     10 C         142.5570  139.3375  159.3714 C.3     1  UNL1        0.3609
     11 N         139.5393  138.6737  163.8102 N.3     1  UNL1       -0.2646
     12 C         140.9656  138.2110  163.7694 C.3     1  UNL1        0.0941
     13 C         141.8859  138.7113  162.6959 C.3     1  UNL1        0.1080
     14 N         141.3800  139.6743  161.6629 N.pl3   1  UNL1       -0.3034
     15 C         139.9537  140.1369  161.7037 C.3     1  UNL1        0.1080
     16 C         139.0334  139.6366  162.7773 C.3     1  UNL1        0.0941
     17 C         138.6190  138.1734  164.8837 C.3     1  UNL1        0.1222
     18 C         140.0703  141.1028  169.0302 C.3     1  UNL1        0.0754
     19 C         139.3457  140.1141  168.1657 C.ar    1  UNL1        0.1546
     20 C         139.6446  139.8161  166.7262 C.ar    1  UNL1        0.0550
     21 C         138.6787  138.7676  166.2598 C.ar    1  UNL1        0.1165
     22 N         137.7829  138.4175  167.4109 N.ar    1  UNL1       -0.0803
     23 O         138.1952  139.2497  168.5888 O.2     1  UNL1       -0.3580
     24 C         142.4202  136.4005  156.8375 C.ar    1  UNL1        0.0882
     25 C         143.2634  135.1865  157.0928 C.ar    1  UNL1        0.0089
     26 C         143.0282  133.9311  156.3061 C.ar    1  UNL1        0.0148
     27 C         141.9499  133.8897  155.2643 C.ar    1  UNL1        0.0479
     28 C         141.1067  135.1038  155.0090 C.ar    1  UNL1        0.0148
     29 C         141.3419  136.3591  155.7956 C.ar    1  UNL1        0.0089
     30 N         141.7147  132.6344  154.4777 N.pl3   1  UNL1       -0.3046
     31 C         140.7483  131.6037  154.9813 C.3     1  UNL1        0.1081
     32 C         140.5131  130.3483  154.1947 C.3     1  UNL1        0.0938
     33 N         141.2446  130.1237  152.9044 N.3     1  UNL1       -0.2686
     34 C         141.0094  128.8683  152.1178 C.3     1  UNL1        0.0897
     35 C         142.2110  131.1543  152.4009 C.3     1  UNL1        0.0938
     36 C         142.4461  132.4097  153.1875 C.3     1  UNL1        0.1081
@<TRIPOS>BOND
     1    18    19    1
     2    19    20   ar
     3    20    21   ar
     4    21    17    1
     5    17    11    1
     6    11    12    1
     7    12    13    1
     8    13    14    1
     9    14     1    1
    10     1     2    2
    11     2     3    1
    12     2     4    1
    13     4     5    2
    14     5     6    1
    15     6     7    2
    16     7     8    1
    17     8    24    1
    18    24    25   ar
    19    25    26   ar
    20    26    27   ar
    21    27    30    1
    22    30    31    1
    23    31    32    1
    24    32    33    1
    25    33    34    1
    26    33    35    1
    27    35    36    1
    28    27    28   ar
    29    28    29   ar
    30     8     9    2
    31     9    10    1
    32    14    15    1
    33    15    16    1
    34    21    22   ar
    35    22    23   ar
    36    23    19   ar
    37    16    11    1
    38    10     1    1
    39    10     6    1
    40    29    24   ar
    41    36    30    1
@<TRIPOS>MOLECULE
*****
 36 41 0 0 0
SMALL
GASTEIGER

@<TRIPOS>ATOM
      1 C         143.3679  140.2557  159.9759 C.2     1  UNL1        0.1012
      2 C         143.8178  141.6667  159.7379 C.2     1  UNL1        0.1182
      3 CL        143.9104  142.6280  160.8857 Cl      1  UNL1       -0.0771
      4 C         144.1750  142.1163  158.3523 C.2     1  UNL1        0.2481
      5 N         144.0823  141.1550  157.2045 N.2     1  UNL1       -0.0293
      6 C         143.6324  139.7440  157.4425 C.2     1  UNL1        0.4105
      7 N         143.4449  138.5804  156.5147 N.2     1  UNL1        0.0120
      8 C         142.9718  137.4115  157.3271 C.2     1  UNL1        0.3751
      9 N         142.8670  137.8527  158.7569 N.2     1  UNL1       -0.0450
     10 C         143.2752  139.2943  158.8282 C.3     1  UNL1        0.3609
     11 N         142.2964  138.9066  164.1331 N.3     1  UNL1       -0.2646
     12 C         143.7229  138.8542  163.6718 C.3     1  UNL1        0.0941
     13 C         144.0800  139.3038  162.2862 C.3     1  UNL1        0.1080
     14 N         143.0107  139.8060  161.3617 N.pl3   1  UNL1       -0.3034
     15 C         141.5844  139.8584  161.8229 C.3     1  UNL1        0.1080
     16 C         141.2273  139.4087  163.2086 C.3     1  UNL1        0.0941
     17 C         141.9393  138.4569  165.5188 C.3     1  UNL1        0.1222
     18 C         142.3149  142.6093  168.7589 C.3     1  UNL1        0.0754
     19 C         142.4497  141.2290  168.1873 C.ar    1  UNL1        0.1546
     20 C         141.9140  140.7662  166.8648 C.ar    1  UNL1        0.0550
     21 C         142.2770  139.3204  166.6980 C.ar    1  UNL1        0.1165
     22 N         143.0370  138.8897  167.9173 N.ar    1  UNL1       -0.0803
     23 O         143.1437  140.0692  168.8378 O.2     1  UNL1       -0.3580
     24 C         142.6586  136.0418  156.8019 C.ar    1  UNL1        0.0882
     25 C         143.3739  134.8449  157.3547 C.ar    1  UNL1        0.0089
     26 C         143.0606  133.4752  156.8294 C.ar    1  UNL1        0.0148
     27 C         142.0320  133.3024  155.7514 C.ar    1  UNL1        0.0479
     28 C         141.3167  134.4994  155.1986 C.ar    1  UNL1        0.0148
     29 C         141.6300  135.8691  155.7239 C.ar    1  UNL1        0.0089
     30 N         141.7188  131.9328  155.2262 N.pl3   1  UNL1       -0.3046
     31 C         140.7564  131.7681  154.0875 C.3     1  UNL1        0.1081
     32 C         140.4431  130.3984  153.5623 C.3     1  UNL1        0.0938
     33 N         141.0924  129.1934  154.1758 N.3     1  UNL1       -0.2686
     34 C         140.7792  127.8237  153.6506 C.3     1  UNL1        0.0897
     35 C         142.0548  129.3581  155.3145 C.3     1  UNL1        0.0938
     36 C         142.3680  130.7278  155.8397 C.3     1  UNL1        0.1081
@<TRIPOS>BOND
     1    18    19    1
     2    19    20   ar
     3    20    21   ar
     4    21    17    1
     5    17    11    1
     6    11    12    1
     7    12    13    1
     8    13    14    1
     9    14     1    1
    10     1     2    2
    11     2     3    1
    12     2     4    1
    13     4     5    2
    14     5     6    1
    15     6     7    2
    16     7     8    1
    17     8    24    1
    18    24    25   ar
    19    25    26   ar
    20    26    27   ar
    21    27    30    1
    22    30    31    1
    23    31    32    1
    24    32    33    1
    25    33    34    1
    26    33    35    1
    27    35    36    1
    28    27    28   ar
    29    28    29   ar
    30     8     9    2
    31     9    10    1
    32    14    15    1
    33    15    16    1
    34    21    22   ar
    35    22    23   ar
    36    23    19   ar
    37    16    11    1
    38    10     1    1
    39    10     6    1
    40    29    24   ar
    41    36    30    1
@<TRIPOS>MOLECULE
*****
 36 41 0 0 0
SMALL
GASTEIGER

@<TRIPOS>ATOM
      1 C         143.1285  140.3478  157.7856 C.2     1  UNL1        0.1012
      2 C         144.0495  141.4928  157.4844 C.2     1  UNL1        0.1182
      3 CL        143.8454  142.8169  158.1591 Cl      1  UNL1       -0.0771
      4 C         145.1746  141.3137  156.5087 C.2     1  UNL1        0.2481
      5 N         145.3787  139.9895  155.8340 N.2     1  UNL1       -0.0293
      6 C         144.4577  138.8445  156.1352 C.2     1  UNL1        0.4105
      7 N         144.4118  137.4334  155.6286 N.2     1  UNL1        0.0120
      8 C         143.2583  136.7404  156.2913 C.2     1  UNL1        0.3751
      9 N         142.5913  137.7232  157.2075 N.2     1  UNL1       -0.0450
     10 C         143.3326  139.0237  157.1110 C.3     1  UNL1        0.3609
     11 N         139.7532  140.8851  160.7128 N.3     1  UNL1       -0.2646
     12 C         139.5134  141.0880  159.2460 C.3     1  UNL1        0.0941
     13 C         140.6384  140.9088  158.2703 C.3     1  UNL1        0.1080
     14 N         142.0035  140.5269  158.7614 N.pl3   1  UNL1       -0.3034
     15 C         142.2433  140.3240  160.2281 C.3     1  UNL1        0.1080
     16 C         141.1181  140.5032  161.2038 C.3     1  UNL1        0.0941
     17 C         138.6282  141.0642  161.6885 C.3     1  UNL1        0.1222
     18 C         138.5509  144.8551  165.3635 C.3     1  UNL1        0.0754
     19 C         138.3955  144.1274  164.0610 C.ar    1  UNL1        0.1546
     20 C         138.7486  142.6921  163.8053 C.ar    1  UNL1        0.0550
     21 C         138.4311  142.3850  162.3719 C.ar    1  UNL1        0.1165
     22 N         137.8818  143.6304  161.7416 N.ar    1  UNL1       -0.0803
     23 O         137.8598  144.7073  162.7855 O.2     1  UNL1       -0.3580
     24 C         142.8444  135.3149  156.0757 C.ar    1  UNL1        0.0882
     25 C         141.9022  134.9678  154.9614 C.ar    1  UNL1        0.0089
     26 C         141.4883  133.5422  154.7459 C.ar    1  UNL1        0.0148
     27 C         142.0166  132.4637  155.6446 C.ar    1  UNL1        0.0479
     28 C         142.9588  132.8108  156.7590 C.ar    1  UNL1        0.0148
     29 C         143.3726  134.2364  156.9745 C.ar    1  UNL1        0.0089
     30 N         141.6026  131.0381  155.4290 N.pl3   1  UNL1       -0.3046
     31 C         140.3071  130.7295  154.7389 C.3     1  UNL1        0.1081
     32 C         139.8932  129.3039  154.5233 C.3     1  UNL1        0.0938
     33 N         140.7749  128.1870  154.9979 N.3     1  UNL1       -0.2686
     34 C         140.3610  126.7615  154.7824 C.3     1  UNL1        0.0897
     35 C         142.0704  128.4957  155.6880 C.3     1  UNL1        0.0938
     36 C         142.4843  129.9213  155.9036 C.3     1  UNL1        0.1081
@<TRIPOS>BOND
     1    18    19    1
     2    19    20   ar
     3    20    21   ar
     4    21    17    1
     5    17    11    1
     6    11    12    1
     7    12    13    1
     8    13    14    1
     9    14     1    1
    10     1     2    2
    11     2     3    1
    12     2     4    1
    13     4     5    2
    14     5     6    1
    15     6     7    2
    16     7     8    1
    17     8    24    1
    18    24    25   ar
    19    25    26   ar
    20    26    27   ar
    21    27    30    1
    22    30    31    1
    23    31    32    1
    24    32    33    1
    25    33    34    1
    26    33    35    1
    27    35    36    1
    28    27    28   ar
    29    28    29   ar
    30     8     9    2
    31     9    10    1
    32    14    15    1
    33    15    16    1
    34    21    22   ar
    35    22    23   ar
    36    23    19   ar
    37    16    11    1
    38    10     1    1
    39    10     6    1
    40    29    24   ar
    41    36    30    1
@<TRIPOS>MOLECULE
*****
 36 41 0 0 0
SMALL
GASTEIGER

@<TRIPOS>ATOM
      1 C         140.3719  139.4639  162.7479 C.2     1  UNL1        0.1012
      2 C         139.0867  138.7584  163.0647 C.2     1  UNL1        0.1182
      3 CL        138.5574  138.7585  164.4683 Cl      1  UNL1       -0.0771
      4 C         138.3308  138.0528  161.9782 C.2     1  UNL1        0.2481
      5 N         138.8602  138.0526  160.5746 N.2     1  UNL1       -0.0293
      6 C         140.1454  138.7581  160.2577 C.2     1  UNL1        0.4105
      7 N         140.9082  138.9273  158.9773 N.2     1  UNL1        0.0120
      8 C         142.1355  139.7375  159.2726 C.2     1  UNL1        0.3751
      9 N         142.1313  140.0691  160.7355 N.2     1  UNL1       -0.0450
     10 C         140.9013  139.4637  161.3444 C.3     1  UNL1        0.3609
     11 N         142.6396  141.5808  166.0077 N.3     1  UNL1       -0.2646
     12 C         141.6705  142.3418  165.1522 C.3     1  UNL1        0.0941
     13 C         140.9147  141.6362  164.0657 C.3     1  UNL1        0.1080
     14 N         141.1278  140.1695  163.8345 N.pl3   1  UNL1       -0.3034
     15 C         142.0969  139.4084  164.6899 C.3     1  UNL1        0.1080
     16 C         142.8527  140.1141  165.7765 C.3     1  UNL1        0.0941
     17 C         143.3954  142.2864  167.0943 C.3     1  UNL1        0.1222
     18 C         139.7277  142.9929  170.8266 C.3     1  UNL1        0.0754
     19 C         141.0519  142.8737  170.1322 C.ar    1  UNL1        0.1546
     20 C         141.2608  142.5749  168.6771 C.ar    1  UNL1        0.0550
     21 C         142.7378  142.5490  168.4167 C.ar    1  UNL1        0.1165
     22 N         143.4417  142.8317  169.7107 N.ar    1  UNL1       -0.0803
     23 O         142.3998  143.0324  170.7709 O.2     1  UNL1       -0.3580
     24 C         143.1832  140.1448  158.2793 C.ar    1  UNL1        0.0882
     25 C         143.3912  139.3349  157.0340 C.ar    1  UNL1        0.0089
     26 C         144.4389  139.7423  156.0408 C.ar    1  UNL1        0.0148
     27 C         145.2786  140.9593  156.2929 C.ar    1  UNL1        0.0479
     28 C         145.0706  141.7692  157.5382 C.ar    1  UNL1        0.0148
     29 C         144.0229  141.3619  158.5314 C.ar    1  UNL1        0.0089
     30 N         146.3263  141.3666  155.2996 N.pl3   1  UNL1       -0.3046
     31 C         147.6570  141.8685  155.7764 C.3     1  UNL1        0.1081
     32 C         148.7047  142.2757  154.7831 C.3     1  UNL1        0.0938
     33 N         148.4215  142.1810  153.3131 N.3     1  UNL1       -0.2686
     34 C         149.4692  142.5883  152.3198 C.3     1  UNL1        0.0897
     35 C         147.0908  141.6791  152.8364 C.3     1  UNL1        0.0938
     36 C         146.0432  141.2719  153.8297 C.3     1  UNL1        0.1081
@<TRIPOS>BOND
     1    18    19    1
     2    19    20   ar
     3    20    21   ar
     4    21    17    1
     5    17    11    1
     6    11    12    1
     7    12    13    1
     8    13    14    1
     9    14     1    1
    10     1     2    2
    11     2     3    1
    12     2     4    1
    13     4     5    2
    14     5     6    1
    15     6     7    2
    16     7     8    1
    17     8    24    1
    18    24    25   ar
    19    25    26   ar
    20    26    27   ar
    21    27    30    1
    22    30    31    1
    23    31    32    1
    24    32    33    1
    25    33    34    1
    26    33    35    1
    27    35    36    1
    28    27    28   ar
    29    28    29   ar
    30     8     9    2
    31     9    10    1
    32    14    15    1
    33    15    16    1
    34    21    22   ar
    35    22    23   ar
    36    23    19   ar
    37    16    11    1
    38    10     1    1
    39    10     6    1
    40    29    24   ar
    41    36    30    1
@<TRIPOS>MOLECULE
*****
 36 41 0 0 0
SMALL
GASTEIGER

@<TRIPOS>ATOM
      1 C         140.2473  142.7106  161.7513 C.2     1  UNL1        0.1012
      2 C         140.1165  144.2049  161.7607 C.2     1  UNL1        0.1182
      3 CL        139.8492  144.9262  163.0485 Cl      1  UNL1       -0.0771
      4 C         140.2528  144.9777  160.4824 C.2     1  UNL1        0.2481
      5 N         140.5200  144.2563  159.1946 N.2     1  UNL1       -0.0293
      6 C         140.6509  142.7621  159.1852 C.2     1  UNL1        0.4105
      7 N         140.9116  141.7844  158.0780 N.2     1  UNL1        0.0120
      8 C         140.9363  140.4072  158.6720 C.2     1  UNL1        0.3751
      9 N         140.6909  140.5338  160.1463 N.2     1  UNL1       -0.0450
     10 C         140.5145  141.9892  160.4636 C.3     1  UNL1        0.3609
     11 N         139.8382  140.3921  165.5863 N.3     1  UNL1       -0.2646
     12 C         141.1976  140.7869  165.0899 C.3     1  UNL1        0.0941
     13 C         141.3339  141.5597  163.8116 C.3     1  UNL1        0.1080
     14 N         140.1109  141.9378  163.0296 N.pl3   1  UNL1       -0.3034
     15 C         138.7516  141.5430  163.5259 C.3     1  UNL1        0.1080
     16 C         138.6153  140.7701  164.8043 C.3     1  UNL1        0.0941
     17 C         139.7019  139.6192  166.8645 C.3     1  UNL1        0.1222
     18 C         140.1112  143.3753  170.5532 C.3     1  UNL1        0.0754
     19 C         139.8220  142.0709  169.8714 C.ar    1  UNL1        0.1546
     20 C         140.0677  141.7586  168.4249 C.ar    1  UNL1        0.0550
     21 C         139.6339  140.3445  168.1759 C.ar    1  UNL1        0.1165
     22 N         139.1201  139.7828  169.4684 N.ar    1  UNL1       -0.0803
     23 O         139.2364  140.8498  170.5162 O.2     1  UNL1       -0.3580
     24 C         141.1661  139.1280  157.9231 C.ar    1  UNL1        0.0882
     25 C         142.5002  138.4461  157.9950 C.ar    1  UNL1        0.0089
     26 C         142.7299  137.1669  157.2461 C.ar    1  UNL1        0.0148
     27 C         141.6256  136.5696  156.4253 C.ar    1  UNL1        0.0479
     28 C         140.2915  137.2515  156.3534 C.ar    1  UNL1        0.0148
     29 C         140.0618  138.5307  157.1023 C.ar    1  UNL1        0.0089
     30 N         141.8554  135.2903  155.6764 N.pl3   1  UNL1       -0.3046
     31 C         141.2759  135.1098  154.3047 C.3     1  UNL1        0.1081
     32 C         141.5057  133.8306  153.5559 C.3     1  UNL1        0.0938
     33 N         142.3150  132.7319  154.1788 N.3     1  UNL1       -0.2686
     34 C         142.5448  131.4527  153.4299 C.3     1  UNL1        0.0897
     35 C         142.8945  132.9125  155.5504 C.3     1  UNL1        0.0938
     36 C         142.6647  134.1917  156.2993 C.3     1  UNL1        0.1081
@<TRIPOS>BOND
     1    18    19    1
     2    19    20   ar
     3    20    21   ar
     4    21    17    1
     5    17    11    1
     6    11    12    1
     7    12    13    1
     8    13    14    1
     9    14     1    1
    10     1     2    2
    11     2     3    1
    12     2     4    1
    13     4     5    2
    14     5     6    1
    15     6     7    2
    16     7     8    1
    17     8    24    1
    18    24    25   ar
    19    25    26   ar
    20    26    27   ar
    21    27    30    1
    22    30    31    1
    23    31    32    1
    24    32    33    1
    25    33    34    1
    26    33    35    1
    27    35    36    1
    28    27    28   ar
    29    28    29   ar
    30     8     9    2
    31     9    10    1
    32    14    15    1
    33    15    16    1
    34    21    22   ar
    35    22    23   ar
    36    23    19   ar
    37    16    11    1
    38    10     1    1
    39    10     6    1
    40    29    24   ar
    41    36    30    1
@<TRIPOS>MOLECULE
*****
 36 41 0 0 0
SMALL
GASTEIGER

@<TRIPOS>ATOM
      1 C         141.0719  139.8622  161.4370 C.2     1  UNL1        0.1012
      2 C         139.7658  139.1319  161.5402 C.2     1  UNL1        0.1182
      3 CL        139.0538  139.0511  162.8580 Cl      1  UNL1       -0.0771
      4 C         139.1717  138.4824  160.3257 C.2     1  UNL1        0.2481
      5 N         139.8837  138.5632  159.0078 N.2     1  UNL1       -0.0293
      6 C         141.1898  139.2936  158.9047 C.2     1  UNL1        0.4105
      7 N         142.1143  139.5382  157.7491 N.2     1  UNL1        0.0120
      8 C         143.2798  140.3390  158.2495 C.2     1  UNL1        0.3751
      9 N         143.0756  140.5892  159.7143 N.2     1  UNL1       -0.0450
     10 C         141.7839  139.9431  160.1193 C.3     1  UNL1        0.3609
     11 N         142.8542  141.8107  165.0808 N.3     1  UNL1       -0.2646
     12 C         143.1483  140.3707  164.7806 C.3     1  UNL1        0.0941
     13 C         142.5543  139.7212  163.5661 C.3     1  UNL1        0.1080
     14 N         141.6660  140.5117  162.6516 N.pl3   1  UNL1       -0.3034
     15 C         141.3719  141.9517  162.9517 C.3     1  UNL1        0.1080
     16 C         141.9660  142.6011  164.1663 C.3     1  UNL1        0.0941
     17 C         143.4483  142.4601  166.2953 C.3     1  UNL1        0.1222
     18 C         139.7546  141.6871  169.9886 C.3     1  UNL1        0.0754
     19 C         141.0665  141.9776  169.3219 C.ar    1  UNL1        0.1546
     20 C         141.3182  141.9999  167.8433 C.ar    1  UNL1        0.0550
     21 C         142.7643  142.3329  167.6243 C.ar    1  UNL1        0.1165
     22 N         143.4063  142.5165  168.9675 N.ar    1  UNL1       -0.0803
     23 O         142.3570  142.2969  170.0166 O.2     1  UNL1       -0.3580
     24 C         144.4450  140.8073  157.4291 C.ar    1  UNL1        0.0882
     25 C         144.8070  140.0901  156.1624 C.ar    1  UNL1        0.0089
     26 C         145.9722  140.5585  155.3421 C.ar    1  UNL1        0.0148
     27 C         146.7754  141.7441  155.7884 C.ar    1  UNL1        0.0479
     28 C         146.4134  142.4613  157.0551 C.ar    1  UNL1        0.0148
     29 C         145.2482  141.9929  157.8754 C.ar    1  UNL1        0.0089
     30 N         147.9406  142.2124  154.9680 N.pl3   1  UNL1       -0.3046
     31 C         147.7384  143.2450  153.8990 C.3     1  UNL1        0.1081
     32 C         148.9035  143.7134  153.0786 C.3     1  UNL1        0.0938
     33 N         150.2710  143.1490  153.3273 N.3     1  UNL1       -0.2686
     34 C         151.4361  143.6174  152.5070 C.3     1  UNL1        0.0897
     35 C         150.4731  142.1165  154.3963 C.3     1  UNL1        0.0938
     36 C         149.3079  141.6481  155.2167 C.3     1  UNL1        0.1081
@<TRIPOS>BOND
     1    18    19    1
     2    19    20   ar
     3    20    21   ar
     4    21    17    1
     5    17    11    1
     6    11    12    1
     7    12    13    1
     8    13    14    1
     9    14     1    1
    10     1     2    2
    11     2     3    1
    12     2     4    1
    13     4     5    2
    14     5     6    1
    15     6     7    2
    16     7     8    1
    17     8    24    1
    18    24    25   ar
    19    25    26   ar
    20    26    27   ar
    21    27    30    1
    22    30    31    1
    23    31    32    1
    24    32    33    1
    25    33    34    1
    26    33    35    1
    27    35    36    1
    28    27    28   ar
    29    28    29   ar
    30     8     9    2
    31     9    10    1
    32    14    15    1
    33    15    16    1
    34    21    22   ar
    35    22    23   ar
    36    23    19   ar
    37    16    11    1
    38    10     1    1
    39    10     6    1
    40    29    24   ar
    41    36    30    1
@<TRIPOS>MOLECULE
*****
 36 41 0 0 0
SMALL
GASTEIGER

@<TRIPOS>ATOM
      1 C         143.9270  139.5360  155.8378 C.2     1  UNL1        0.1012
      2 C         144.3993  140.2449  154.6031 C.2     1  UNL1        0.1182
      3 CL        144.2904  139.5747  153.2656 Cl      1  UNL1       -0.0771
      4 C         144.9804  141.6238  154.7060 C.2     1  UNL1        0.2481
      5 N         145.0893  142.2941  156.0436 N.2     1  UNL1       -0.0293
      6 C         144.6171  141.5852  157.2783 C.2     1  UNL1        0.4105
      7 N         144.5971  141.9901  158.7224 N.2     1  UNL1        0.0120
      8 C         144.0037  140.8613  159.5121 C.2     1  UNL1        0.3751
      9 N         143.6568  139.7587  158.5560 N.2     1  UNL1       -0.0450
     10 C         144.0359  140.2061  157.1754 C.3     1  UNL1        0.3609
     11 N         142.1837  135.3989  155.5291 N.3     1  UNL1       -0.2646
     12 C         143.6704  135.5919  155.4802 C.3     1  UNL1        0.0941
     13 C         144.2515  136.9708  155.5831 C.3     1  UNL1        0.1080
     14 N         143.3459  138.1570  155.7349 N.pl3   1  UNL1       -0.3034
     15 C         141.8592  137.9641  155.7838 C.3     1  UNL1        0.1080
     16 C         141.2781  136.5850  155.6809 C.3     1  UNL1        0.0941
     17 C         141.6026  134.0199  155.4262 C.3     1  UNL1        0.1222
     18 C         144.7950  129.8501  154.8765 C.3     1  UNL1        0.0754
     19 C         143.9195  130.9063  155.4830 C.ar    1  UNL1        0.1546
     20 C         143.2105  131.9984  154.7382 C.ar    1  UNL1        0.0550
     21 C         142.4521  132.8230  155.7356 C.ar    1  UNL1        0.1165
     22 N         142.6924  132.2405  157.0969 N.ar    1  UNL1       -0.0803
     23 O         143.5992  131.0560  156.9408 O.2     1  UNL1       -0.3580
     24 C         143.7939  140.8389  160.9972 C.ar    1  UNL1        0.0882
     25 C         144.5811  141.7614  161.8799 C.ar    1  UNL1        0.0089
     26 C         144.3712  141.7390  163.3650 C.ar    1  UNL1        0.0148
     27 C         143.3742  140.7940  163.9674 C.ar    1  UNL1        0.0479
     28 C         142.5869  139.8714  163.0847 C.ar    1  UNL1        0.0148
     29 C         142.7968  139.8939  161.5996 C.ar    1  UNL1        0.0089
     30 N         143.1644  140.7716  165.4525 N.pl3   1  UNL1       -0.3046
     31 C         142.9232  139.4691  166.1563 C.3     1  UNL1        0.1081
     32 C         142.7134  139.4468  167.6414 C.3     1  UNL1        0.0938
     33 N         142.7448  140.7270  168.4226 N.3     1  UNL1       -0.2686
     34 C         142.5350  140.7046  169.9077 C.3     1  UNL1        0.0897
     35 C         142.9859  142.0293  167.7187 C.3     1  UNL1        0.0938
     36 C         143.1957  142.0517  166.2337 C.3     1  UNL1        0.1081
@<TRIPOS>BOND
     1    18    19    1
     2    19    20   ar
     3    20    21   ar
     4    21    17    1
     5    17    11    1
     6    11    12    1
     7    12    13    1
     8    13    14    1
     9    14     1    1
    10     1     2    2
    11     2     3    1
    12     2     4    1
    13     4     5    2
    14     5     6    1
    15     6     7    2
    16     7     8    1
    17     8    24    1
    18    24    25   ar
    19    25    26   ar
    20    26    27   ar
    21    27    30    1
    22    30    31    1
    23    31    32    1
    24    32    33    1
    25    33    34    1
    26    33    35    1
    27    35    36    1
    28    27    28   ar
    29    28    29   ar
    30     8     9    2
    31     9    10    1
    32    14    15    1
    33    15    16    1
    34    21    22   ar
    35    22    23   ar
    36    23    19   ar
    37    16    11    1
    38    10     1    1
    39    10     6    1
    40    29    24   ar
    41    36    30    1
@<TRIPOS>MOLECULE
*****
 36 41 0 0 0
SMALL
GASTEIGER

@<TRIPOS>ATOM
      1 C         139.4756  140.5109  156.9976 C.2     1  UNL1        0.1012
      2 C         138.7682  141.0703  155.7990 C.2     1  UNL1        0.1182
      3 CL        139.0615  140.5249  154.4327 Cl      1  UNL1       -0.0771
      4 C         137.7676  142.1751  155.9666 C.2     1  UNL1        0.2481
      5 N         137.4743  142.7206  157.3328 N.2     1  UNL1       -0.0293
      6 C         138.1817  142.1612  158.5314 C.2     1  UNL1        0.4105
      7 N         138.0999  142.4949  159.9915 N.2     1  UNL1        0.0120
      8 C         139.0500  141.5964  160.7263 C.2     1  UNL1        0.3751
      9 N         139.7190  140.7073  159.7203 N.2     1  UNL1       -0.0450
     10 C         139.1824  141.0564  158.3638 C.3     1  UNL1        0.3609
     11 N         142.4777  137.1966  156.4946 N.3     1  UNL1       -0.2646
     12 C         142.9437  138.6150  156.6400 C.3     1  UNL1        0.0941
     13 C         141.9430  139.7197  156.8076 C.3     1  UNL1        0.1080
     14 N         140.4763  139.4061  156.8299 N.pl3   1  UNL1       -0.3034
     15 C         140.0102  137.9878  156.6845 C.3     1  UNL1        0.1080
     16 C         141.0110  136.8830  156.5169 C.3     1  UNL1        0.0941
     17 C         143.4783  136.0918  156.3270 C.3     1  UNL1        0.1222
     18 C         141.4226  131.4222  154.9669 C.3     1  UNL1        0.0754
     19 C         142.0863  132.5145  155.7520 C.ar    1  UNL1        0.1546
     20 C         142.3527  133.9098  155.2701 C.ar    1  UNL1        0.0550
     21 C         143.0312  134.6608  156.3772 C.ar    1  UNL1        0.1165
     22 N         143.1840  133.7297  157.5432 N.ar    1  UNL1       -0.0803
     23 O         142.6001  132.4032  157.1569 O.2     1  UNL1       -0.3580
     24 C         139.2892  141.5883  162.2070 C.ar    1  UNL1        0.0882
     25 C         138.1568  141.3016  163.1481 C.ar    1  UNL1        0.0089
     26 C         138.3961  141.2936  164.6289 C.ar    1  UNL1        0.0148
     27 C         139.7676  141.5722  165.1687 C.ar    1  UNL1        0.0479
     28 C         140.8999  141.8588  164.2276 C.ar    1  UNL1        0.0148
     29 C         140.6607  141.8669  162.7468 C.ar    1  UNL1        0.0089
     30 N         140.0067  141.5641  166.6495 N.pl3   1  UNL1       -0.3046
     31 C         140.4369  142.8206  167.3466 C.3     1  UNL1        0.1081
     32 C         140.6761  142.8126  168.8274 C.3     1  UNL1        0.0938
     33 N         140.4850  141.5478  169.6110 N.3     1  UNL1       -0.2686
     34 C         140.7242  141.5397  171.0918 C.3     1  UNL1        0.0897
     35 C         140.0549  140.2913  168.9138 C.3     1  UNL1        0.0938
     36 C         139.8157  140.2994  167.4330 C.3     1  UNL1        0.1081
@<TRIPOS>BOND
     1    18    19    1
     2    19    20   ar
     3    20    21   ar
     4    21    17    1
     5    17    11    1
     6    11    12    1
     7    12    13    1
     8    13    14    1
     9    14     1    1
    10     1     2    2
    11     2     3    1
    12     2     4    1
    13     4     5    2
    14     5     6    1
    15     6     7    2
    16     7     8    1
    17     8    24    1
    18    24    25   ar
    19    25    26   ar
    20    26    27   ar
    21    27    30    1
    22    30    31    1
    23    31    32    1
    24    32    33    1
    25    33    34    1
    26    33    35    1
    27    35    36    1
    28    27    28   ar
    29    28    29   ar
    30     8     9    2
    31     9    10    1
    32    14    15    1
    33    15    16    1
    34    21    22   ar
    35    22    23   ar
    36    23    19   ar
    37    16    11    1
    38    10     1    1
    39    10     6    1
    40    29    24   ar
    41    36    30    1
