@<TRIPOS>MOLECULE
*****
 38 44 0 0 0
SMALL
GASTEIGER

@<TRIPOS>ATOM
      1 C         138.5889  141.9854  164.2556 C.3     1  UNL1        0.0955
      2 C         138.2379  142.0104  162.7974 C.3     1  UNL1        0.0287
      3 C         138.2447  143.3089  162.0464 C.3     1  UNL1        0.0193
      4 C         138.6024  144.5824  162.7536 C.3     1  UNL1        0.0700
      5 C         138.9534  144.5574  164.2118 C.3     1  UNL1        0.0193
      6 C         138.9466  143.2590  164.9628 C.3     1  UNL1        0.0287
      7 C         138.6125  143.8951  163.2072 C.3     1  UNL1        0.1562
      8 O         138.6064  142.7211  163.8862 O.3     1  UNL1       -0.3571
      9 N         138.6092  145.8809  162.0027 N.3     1  UNL1       -0.2925
     10 H         138.4758  146.6205  162.6923 H       1  UNL1        0.1236
     11 C         139.8034  146.2655  161.1806 C.3     1  UNL1        0.1186
     12 C         140.9965  145.3583  161.1209 C.ar    1  UNL1        0.1166
     13 C         141.7409  144.8019  162.2981 C.ar    1  UNL1        0.0600
     14 C         142.8591  143.9479  161.7781 C.ar    1  UNL1        0.1825
     15 O         142.8058  143.9766  160.2794 O.2     1  UNL1       -0.3532
     16 N         141.6546  144.8483  159.8731 N.ar    1  UNL1       -0.0799
     17 C         143.8557  143.1971  162.6107 C.ar    1  UNL1        0.0666
     18 C         144.9514  142.3142  162.0914 C.ar    1  UNL1        0.0102
     19 C         145.7044  141.7689  163.2685 C.ar    1  UNL1        0.0076
     20 C         145.0740  142.3148  164.5153 C.ar    1  UNL1        0.0355
     21 S         143.9315  143.1975  164.1088 S.2     1  UNL1       -0.0833
     22 C         138.5821  140.6869  165.0065 C.3     1  UNL1        0.0604
     23 O         138.8523  140.8104  170.1246 O.2     1  UNL1       -0.2670
     24 C         140.0830  140.2356  169.4884 C.ar    1  UNL1        0.2611
     25 C         141.2234  139.7717  170.3454 C.ar    1  UNL1        0.0623
     26 C         142.4541  139.1968  169.7092 C.ar    1  UNL1        0.0254
     27 C         142.5446  139.0859  168.2161 C.ar    1  UNL1        0.0972
     28 N         143.6358  138.5605  167.3196 N.ar    1  UNL1       -0.2400
     29 C         143.5826  138.5128  165.8213 C.ar    1  UNL1        0.1282
     30 C         142.3688  139.0156  165.0976 C.ar    1  UNL1        0.1588
     31 F         142.3157  138.9680  163.5993 F       1  UNL1       -0.2027
     32 C         141.2081  139.5660  165.8721 C.ar    1  UNL1        0.0500
     33 C         141.4043  139.5498  167.3591 C.ar    1  UNL1        0.0806
     34 N         140.1735  140.1247  167.9953 N.ar    1  UNL1       -0.2915
     35 C         139.2167  140.4961  166.9014 C.3     1  UNL1        0.1402
     36 C         139.8561  140.1508  165.5892 C.3     1  UNL1        0.1335
     37 O         140.2292  139.9176  164.1552 O.3     1  UNL1       -0.3806
     38 H         139.5047  140.2110  163.5808 H       1  UNL1        0.2108
@<TRIPOS>BOND
     1    23    24    2
     2    24    25   ar
     3    25    26   ar
     4    26    27   ar
     5    27    28   ar
     6    28    29   ar
     7    29    30   ar
     8    30    31    1
     9    30    32   ar
    10    32    33   ar
    11    33    34   ar
    12    34    35    1
    13    35    36    1
    14    36    37    1
    15    36    22    1
    16    22     1    1
    17     1     2    1
    18     2     3    1
    19     3     4    1
    20     4     9    1
    21     9    11    1
    22    11    12    1
    23    12    13   ar
    24    13    14   ar
    25    14    17    1
    26    17    18   ar
    27    18    19   ar
    28    19    20   ar
    29    20    21   ar
    30    14    15   ar
    31    15    16   ar
    32     4     5    1
    33     5     6    1
    34     4     7    1
    35     7     8    1
    36    34    24   ar
    37     6     1    1
    38    33    27   ar
    39     8     1    1
    40    36    32    1
    41    16    12   ar
    42    21    17   ar
    43    37    38    1
    44     9    10    1
@<TRIPOS>MOLECULE
*****
 38 44 0 0 0
SMALL
GASTEIGER

@<TRIPOS>ATOM
      1 C         138.8049  138.9496  164.2199 C.3     1  UNL1        0.0955
      2 C         138.0924  140.2371  163.9282 C.3     1  UNL1        0.0287
      3 C         137.5958  140.5220  162.5418 C.3     1  UNL1        0.0193
      4 C         137.8117  139.5196  161.4470 C.3     1  UNL1        0.0700
      5 C         138.5241  138.2323  161.7387 C.3     1  UNL1        0.0193
      6 C         139.0207  137.9472  163.1251 C.3     1  UNL1        0.0287
      7 C         138.1018  139.3190  162.1911 C.3     1  UNL1        0.1562
      8 O         138.5508  139.0613  163.4447 O.3     1  UNL1       -0.3571
      9 N         137.3151  139.8046  160.0606 N.3     1  UNL1       -0.2925
     10 H         136.4101  140.2644  160.1606 H       1  UNL1        0.1236
     11 C         138.1315  140.6529  159.1312 C.3     1  UNL1        0.1186
     12 C         138.9054  141.8210  159.6667 C.ar    1  UNL1        0.1166
     13 C         140.2453  141.7578  160.3377 C.ar    1  UNL1        0.0600
     14 C         140.6432  143.1551  160.7109 C.ar    1  UNL1        0.1825
     15 O         139.5492  144.0819  160.2704 O.2     1  UNL1       -0.3532
     16 N         138.4751  143.2573  159.6250 N.ar    1  UNL1       -0.0799
     17 C         141.9124  143.5554  161.4030 C.ar    1  UNL1        0.0666
     18 C         142.0573  144.6563  162.4114 C.ar    1  UNL1        0.0102
     19 C         143.4940  144.7062  162.8398 C.ar    1  UNL1        0.0076
     20 C         144.2369  143.6362  162.0962 C.ar    1  UNL1        0.0355
     21 S         143.2595  142.9249  161.2082 S.2     1  UNL1       -0.0833
     22 C         139.3014  138.6647  165.6063 C.3     1  UNL1        0.0604
     23 O         137.9685  139.9262  170.3932 O.2     1  UNL1       -0.2670
     24 C         139.2235  140.6096  169.9370 C.ar    1  UNL1        0.2611
     25 C         139.9438  141.5484  170.8588 C.ar    1  UNL1        0.0623
     26 C         141.1988  142.2318  170.4026 C.ar    1  UNL1        0.0254
     27 C         141.7335  141.9762  169.0247 C.ar    1  UNL1        0.0972
     28 N         142.9478  142.5117  168.3112 N.ar    1  UNL1       -0.2400
     29 C         143.3604  142.1596  166.9127 C.ar    1  UNL1        0.1282
     30 C         142.5360  141.2001  166.1067 C.ar    1  UNL1        0.1588
     31 F         142.9486  140.8480  164.7082 F       1  UNL1       -0.2027
     32 C         141.2991  140.5926  166.6992 C.ar    1  UNL1        0.0500
     33 C         141.0132  141.0373  168.1029 C.ar    1  UNL1        0.0806
     34 N         139.7582  140.3540  168.5591 N.ar    1  UNL1       -0.2915
     35 C         139.2685  139.4870  167.4373 C.3     1  UNL1        0.1402
     36 C         140.2208  139.6344  166.2878 C.3     1  UNL1        0.1335
     37 O         140.9809  139.5792  164.9958 O.3     1  UNL1       -0.3806
     38 H         140.5325  138.9763  164.3824 H       1  UNL1        0.2108
@<TRIPOS>BOND
     1    23    24    2
     2    24    25   ar
     3    25    26   ar
     4    26    27   ar
     5    27    28   ar
     6    28    29   ar
     7    29    30   ar
     8    30    31    1
     9    30    32   ar
    10    32    33   ar
    11    33    34   ar
    12    34    35    1
    13    35    36    1
    14    36    37    1
    15    36    22    1
    16    22     1    1
    17     1     2    1
    18     2     3    1
    19     3     4    1
    20     4     9    1
    21     9    11    1
    22    11    12    1
    23    12    13   ar
    24    13    14   ar
    25    14    17    1
    26    17    18   ar
    27    18    19   ar
    28    19    20   ar
    29    20    21   ar
    30    14    15   ar
    31    15    16   ar
    32     4     5    1
    33     5     6    1
    34     4     7    1
    35     7     8    1
    36    34    24   ar
    37     6     1    1
    38    33    27   ar
    39     8     1    1
    40    36    32    1
    41    16    12   ar
    42    21    17   ar
    43    37    38    1
    44     9    10    1
@<TRIPOS>MOLECULE
*****
 38 44 0 0 0
SMALL
GASTEIGER

@<TRIPOS>ATOM
      1 C         143.6133  140.5771  159.7411 C.3     1  UNL1        0.0955
      2 C         142.9356  140.6491  158.4048 C.3     1  UNL1        0.0287
      3 C         142.7037  141.9797  157.7523 C.3     1  UNL1        0.0193
      4 C         143.1493  143.2382  158.4360 C.3     1  UNL1        0.0700
      5 C         143.8269  143.1662  159.7722 C.3     1  UNL1        0.0193
      6 C         144.0590  141.8356  160.4249 C.3     1  UNL1        0.0287
      7 C         143.2982  142.5322  158.8328 C.3     1  UNL1        0.1562
      8 O         143.5080  141.3291  159.4228 O.3     1  UNL1       -0.3571
      9 N         142.9173  144.5688  157.7834 N.3     1  UNL1       -0.2925
     10 H         142.8368  144.3953  156.7815 H       1  UNL1        0.1236
     11 C         141.7318  145.3998  158.1756 C.3     1  UNL1        0.1186
     12 C         140.7354  144.8666  159.1620 C.ar    1  UNL1        0.1166
     13 C         140.7121  145.1529  160.6341 C.ar    1  UNL1        0.0600
     14 C         139.5496  144.4167  161.2312 C.ar    1  UNL1        0.1825
     15 O         138.8543  143.6754  160.1281 O.2     1  UNL1       -0.3532
     16 N         139.5872  143.9535  158.8492 N.ar    1  UNL1       -0.0799
     17 C         139.1521  144.4211  162.6777 C.ar    1  UNL1        0.0666
     18 C         137.7871  144.1132  163.2178 C.ar    1  UNL1        0.0102
     19 C         137.8413  144.2359  164.7118 C.ar    1  UNL1        0.0076
     20 C         139.2398  144.6197  165.0949 C.ar    1  UNL1        0.0355
     21 S         140.0500  144.7341  163.8378 S.2     1  UNL1       -0.0833
     22 C         143.8453  139.2466  160.3937 C.3     1  UNL1        0.0604
     23 O         138.9409  137.8510  160.9244 O.2     1  UNL1       -0.2670
     24 C         139.6645  137.9520  162.2344 C.ar    1  UNL1        0.2611
     25 C         138.9420  137.6556  163.5151 C.ar    1  UNL1        0.0623
     26 C         139.6656  137.7566  164.8251 C.ar    1  UNL1        0.0254
     27 C         141.1116  138.1540  164.8545 C.ar    1  UNL1        0.0972
     28 N         142.0733  138.3332  166.0006 N.ar    1  UNL1       -0.2400
     29 C         143.5114  138.7403  165.8735 C.ar    1  UNL1        0.1282
     30 C         144.0990  139.0050  164.5190 C.ar    1  UNL1        0.1588
     31 F         145.5371  139.4121  164.3919 F       1  UNL1       -0.2027
     32 C         143.2485  138.8627  163.2916 C.ar    1  UNL1        0.0500
     33 C         141.8341  138.4504  163.5739 C.ar    1  UNL1        0.0806
     34 N         141.1105  138.3494  162.2639 N.ar    1  UNL1       -0.2915
     35 C         142.0777  138.6992  161.1720 C.3     1  UNL1        0.1402
     36 C         143.3990  139.0164  161.8072 C.3     1  UNL1        0.1335
     37 O         144.8137  139.3817  162.1469 O.3     1  UNL1       -0.3806
     38 H         145.3015  139.5781  161.3318 H       1  UNL1        0.2108
@<TRIPOS>BOND
     1    23    24    2
     2    24    25   ar
     3    25    26   ar
     4    26    27   ar
     5    27    28   ar
     6    28    29   ar
     7    29    30   ar
     8    30    31    1
     9    30    32   ar
    10    32    33   ar
    11    33    34   ar
    12    34    35    1
    13    35    36    1
    14    36    37    1
    15    36    22    1
    16    22     1    1
    17     1     2    1
    18     2     3    1
    19     3     4    1
    20     4     9    1
    21     9    11    1
    22    11    12    1
    23    12    13   ar
    24    13    14   ar
    25    14    17    1
    26    17    18   ar
    27    18    19   ar
    28    19    20   ar
    29    20    21   ar
    30    14    15   ar
    31    15    16   ar
    32     4     5    1
    33     5     6    1
    34     4     7    1
    35     7     8    1
    36    34    24   ar
    37     6     1    1
    38    33    27   ar
    39     8     1    1
    40    36    32    1
    41    16    12   ar
    42    21    17   ar
    43    37    38    1
    44     9    10    1
@<TRIPOS>MOLECULE
*****
 38 44 0 0 0
SMALL
GASTEIGER

@<TRIPOS>ATOM
      1 C         144.0539  140.3133  164.9090 C.3     1  UNL1        0.0955
      2 C         143.7482  138.9752  165.5142 C.3     1  UNL1        0.0287
      3 C         142.9392  138.8892  166.7745 C.3     1  UNL1        0.0193
      4 C         142.4359  140.1413  167.4295 C.3     1  UNL1        0.0700
      5 C         142.7417  141.4793  166.8243 C.3     1  UNL1        0.0193
      6 C         143.5506  141.5653  165.5641 C.3     1  UNL1        0.0287
      7 C         142.8754  140.2387  166.7399 C.3     1  UNL1        0.1562
      8 O         143.6068  140.3164  165.6005 O.3     1  UNL1       -0.3571
      9 N         141.6270  140.0553  168.6898 N.3     1  UNL1       -0.2925
     10 H         142.0569  140.6930  169.3597 H       1  UNL1        0.1236
     11 C         140.1622  140.3773  168.6641 C.3     1  UNL1        0.1186
     12 C         139.3075  139.8927  167.5306 C.ar    1  UNL1        0.1166
     13 C         139.4317  140.3052  166.0938 C.ar    1  UNL1        0.0600
     14 C         138.3795  139.5780  165.3102 C.ar    1  UNL1        0.1825
     15 O         137.6051  138.7160  166.2626 O.2     1  UNL1       -0.3532
     16 N         138.1787  138.9105  167.6350 N.ar    1  UNL1       -0.0799
     17 C         138.1432  139.6926  163.8333 C.ar    1  UNL1        0.0666
     18 C         137.6221  140.9018  163.1151 C.ar    1  UNL1        0.0102
     19 C         137.5434  140.5747  161.6533 C.ar    1  UNL1        0.0076
     20 C         138.0160  139.1631  161.4682 C.ar    1  UNL1        0.0355
     21 S         138.3867  138.6180  162.8155 S.2     1  UNL1       -0.0833
     22 C         144.8628  140.3992  163.6488 C.3     1  UNL1        0.0604
     23 O         142.9271  144.6281  161.4919 O.2     1  UNL1       -0.2670
     24 C         142.7208  143.3995  160.6565 C.ar    1  UNL1        0.2611
     25 C         142.0095  143.4987  159.3396 C.ar    1  UNL1        0.0623
     26 C         141.8031  142.2700  158.5042 C.ar    1  UNL1        0.0254
     27 C         142.3080  140.9422  158.9858 C.ar    1  UNL1        0.0972
     28 N         142.2446  139.5684  158.3699 N.ar    1  UNL1       -0.2400
     29 C         142.8021  138.3160  158.9787 C.ar    1  UNL1        0.1282
     30 C         143.4914  138.3717  160.3098 C.ar    1  UNL1        0.1588
     31 F         144.0489  137.1193  160.9185 F       1  UNL1       -0.2027
     32 C         143.6233  139.6797  161.0320 C.ar    1  UNL1        0.0500
     33 C         143.0192  140.8430  160.3026 C.ar    1  UNL1        0.0806
     34 N         143.2256  142.0716  161.1380 N.ar    1  UNL1       -0.2915
     35 C         143.9572  141.6677  162.3837 C.3     1  UNL1        0.1402
     36 C         144.2030  140.1894  162.3182 C.3     1  UNL1        0.1335
     37 O         144.5866  138.7550  162.5308 O.3     1  UNL1       -0.3806
     38 H         145.0493  138.6663  163.3788 H       1  UNL1        0.2108
@<TRIPOS>BOND
     1    23    24    2
     2    24    25   ar
     3    25    26   ar
     4    26    27   ar
     5    27    28   ar
     6    28    29   ar
     7    29    30   ar
     8    30    31    1
     9    30    32   ar
    10    32    33   ar
    11    33    34   ar
    12    34    35    1
    13    35    36    1
    14    36    37    1
    15    36    22    1
    16    22     1    1
    17     1     2    1
    18     2     3    1
    19     3     4    1
    20     4     9    1
    21     9    11    1
    22    11    12    1
    23    12    13   ar
    24    13    14   ar
    25    14    17    1
    26    17    18   ar
    27    18    19   ar
    28    19    20   ar
    29    20    21   ar
    30    14    15   ar
    31    15    16   ar
    32     4     5    1
    33     5     6    1
    34     4     7    1
    35     7     8    1
    36    34    24   ar
    37     6     1    1
    38    33    27   ar
    39     8     1    1
    40    36    32    1
    41    16    12   ar
    42    21    17   ar
    43    37    38    1
    44     9    10    1
@<TRIPOS>MOLECULE
*****
 38 44 0 0 0
SMALL
GASTEIGER

@<TRIPOS>ATOM
      1 C         138.6685  138.2868  163.3943 C.3     1  UNL1        0.0955
      2 C         138.8877  137.2308  164.4370 C.3     1  UNL1        0.0287
      3 C         138.7624  137.5755  165.8915 C.3     1  UNL1        0.0193
      4 C         138.4179  138.9761  166.3034 C.3     1  UNL1        0.0700
      5 C         138.1987  140.0320  165.2608 C.3     1  UNL1        0.0193
      6 C         138.3240  139.6874  163.8063 C.3     1  UNL1        0.0287
      7 C         138.4756  138.8350  165.4941 C.3     1  UNL1        0.1562
      8 O         138.5889  138.5233  164.1790 O.3     1  UNL1       -0.3571
      9 N         138.2926  139.3207  167.7578 N.3     1  UNL1       -0.2925
     10 H         138.0870  138.4512  168.2499 H       1  UNL1        0.1236
     11 C         139.4404  139.9645  168.4775 C.3     1  UNL1        0.1186
     12 C         140.4481  140.7705  167.7126 C.ar    1  UNL1        0.1166
     13 C         141.5444  140.2210  166.8490 C.ar    1  UNL1        0.0600
     14 C         142.3102  141.3784  166.2797 C.ar    1  UNL1        0.1825
     15 O         141.6872  142.6432  166.7915 O.2     1  UNL1       -0.3532
     16 N         140.5363  142.2675  167.6772 N.ar    1  UNL1       -0.0799
     17 C         143.4918  141.2869  165.3600 C.ar    1  UNL1        0.0666
     18 C         144.0810  140.0244  164.8045 C.ar    1  UNL1        0.0102
     19 C         145.2448  140.3992  163.9355 C.ar    1  UNL1        0.0076
     20 C         145.3748  141.8935  163.9541 C.ar    1  UNL1        0.0355
     21 S         144.2914  142.4421  164.8344 S.2     1  UNL1       -0.0833
     22 C         138.7938  137.9421  161.9399 C.3     1  UNL1        0.0604
     23 O         137.9575  140.0419  157.3383 O.2     1  UNL1       -0.2670
     24 C         139.4155  139.9282  157.6722 C.ar    1  UNL1        0.2611
     25 C         140.4481  140.4073  156.6955 C.ar    1  UNL1        0.0623
     26 C         141.9061  140.2936  157.0294 C.ar    1  UNL1        0.0254
     27 C         142.3313  139.7008  158.3400 C.ar    1  UNL1        0.0972
     28 N         143.6970  139.4656  158.9316 N.ar    1  UNL1       -0.2400
     29 C         143.9696  138.8539  160.2738 C.ar    1  UNL1        0.1282
     30 C         142.8289  138.4200  161.1459 C.ar    1  UNL1        0.1588
     31 F         143.1015  137.8084  162.4881 F       1  UNL1       -0.2027
     32 C         141.4156  138.5978  160.6758 C.ar    1  UNL1        0.0500
     33 C         141.2987  139.2216  159.3167 C.ar    1  UNL1        0.0806
     34 N         139.8407  139.3353  158.9828 N.ar    1  UNL1       -0.2915
     35 C         139.0567  138.7818  160.1356 C.3     1  UNL1        0.1402
     36 C         140.0300  138.3260  161.1819 C.3     1  UNL1        0.1335
     37 O         140.7449  137.7900  162.3867 O.3     1  UNL1       -0.3806
     38 H         140.0954  137.4734  163.0339 H       1  UNL1        0.2108
@<TRIPOS>BOND
     1    23    24    2
     2    24    25   ar
     3    25    26   ar
     4    26    27   ar
     5    27    28   ar
     6    28    29   ar
     7    29    30   ar
     8    30    31    1
     9    30    32   ar
    10    32    33   ar
    11    33    34   ar
    12    34    35    1
    13    35    36    1
    14    36    37    1
    15    36    22    1
    16    22     1    1
    17     1     2    1
    18     2     3    1
    19     3     4    1
    20     4     9    1
    21     9    11    1
    22    11    12    1
    23    12    13   ar
    24    13    14   ar
    25    14    17    1
    26    17    18   ar
    27    18    19   ar
    28    19    20   ar
    29    20    21   ar
    30    14    15   ar
    31    15    16   ar
    32     4     5    1
    33     5     6    1
    34     4     7    1
    35     7     8    1
    36    34    24   ar
    37     6     1    1
    38    33    27   ar
    39     8     1    1
    40    36    32    1
    41    16    12   ar
    42    21    17   ar
    43    37    38    1
    44     9    10    1
@<TRIPOS>MOLECULE
*****
 38 44 0 0 0
SMALL
GASTEIGER

@<TRIPOS>ATOM
      1 C         138.2207  140.3313  162.6351 C.3     1  UNL1        0.0955
      2 C         138.2498  141.1738  161.3944 C.3     1  UNL1        0.0287
      3 C         138.6358  140.5612  160.0807 C.3     1  UNL1        0.0193
      4 C         138.9926  139.1061  160.0077 C.3     1  UNL1        0.0700
      5 C         138.9635  138.2636  161.2484 C.3     1  UNL1        0.0193
      6 C         138.5775  138.8762  162.5622 C.3     1  UNL1        0.0287
      7 C         138.7875  139.3971  160.7503 C.3     1  UNL1        0.1562
      8 O         138.4385  139.9510  161.9381 O.3     1  UNL1       -0.3571
      9 N         139.3786  138.4934  158.6941 N.3     1  UNL1       -0.2925
     10 H         138.7139  138.8386  158.0016 H       1  UNL1        0.1236
     11 C         140.7496  138.7262  158.1320 C.3     1  UNL1        0.1186
     12 C         141.9410  138.7422  159.0433 C.ar    1  UNL1        0.1166
     13 C         142.2859  139.8227  160.0248 C.ar    1  UNL1        0.0600
     14 C         143.5547  139.4287  160.7211 C.ar    1  UNL1        0.1825
     15 O         143.9940  138.1046  160.1700 O.2     1  UNL1       -0.3532
     16 N         142.9966  137.6803  159.1330 N.ar    1  UNL1       -0.0799
     17 C         144.2604  140.2199  161.7823 C.ar    1  UNL1        0.0666
     18 C         144.6406  139.7236  163.1457 C.ar    1  UNL1        0.0102
     19 C         145.3249  140.8433  163.8724 C.ar    1  UNL1        0.0076
     20 C         145.3675  142.0316  162.9581 C.ar    1  UNL1        0.0355
     21 S         144.7096  141.6463  161.6664 S.2     1  UNL1       -0.0833
     22 C         137.8347  140.9439  163.9488 C.3     1  UNL1        0.0604
     23 O         142.1530  143.6552  163.4157 O.2     1  UNL1       -0.2670
     24 C         142.0743  142.9343  164.7287 C.ar    1  UNL1        0.2611
     25 C         143.1941  143.0558  165.7193 C.ar    1  UNL1        0.0623
     26 C         143.1154  142.3348  167.0323 C.ar    1  UNL1        0.0254
     27 C         141.9169  141.4924  167.3548 C.ar    1  UNL1        0.0972
     28 N         141.5730  140.6718  168.5708 N.ar    1  UNL1       -0.2400
     29 C         140.3183  139.8702  168.7525 C.ar    1  UNL1        0.1282
     30 C         139.2817  139.8438  167.6686 C.ar    1  UNL1        0.1588
     31 F         138.0270  139.0422  167.8503 F       1  UNL1       -0.2027
     32 C         139.4999  140.6189  166.4031 C.ar    1  UNL1        0.0500
     33 C         140.7972  141.3710  166.3642 C.ar    1  UNL1        0.0806
     34 N         140.8758  142.0919  165.0512 N.ar    1  UNL1       -0.2915
     35 C         139.6272  141.7854  164.2786 C.3     1  UNL1        0.1402
     36 C         138.7768  140.8751  165.1141 C.3     1  UNL1        0.1335
     37 O         137.7295  139.9791  165.7060 O.3     1  UNL1       -0.3806
     38 H         136.9933  139.8856  165.0813 H       1  UNL1        0.2108
@<TRIPOS>BOND
     1    23    24    2
     2    24    25   ar
     3    25    26   ar
     4    26    27   ar
     5    27    28   ar
     6    28    29   ar
     7    29    30   ar
     8    30    31    1
     9    30    32   ar
    10    32    33   ar
    11    33    34   ar
    12    34    35    1
    13    35    36    1
    14    36    37    1
    15    36    22    1
    16    22     1    1
    17     1     2    1
    18     2     3    1
    19     3     4    1
    20     4     9    1
    21     9    11    1
    22    11    12    1
    23    12    13   ar
    24    13    14   ar
    25    14    17    1
    26    17    18   ar
    27    18    19   ar
    28    19    20   ar
    29    20    21   ar
    30    14    15   ar
    31    15    16   ar
    32     4     5    1
    33     5     6    1
    34     4     7    1
    35     7     8    1
    36    34    24   ar
    37     6     1    1
    38    33    27   ar
    39     8     1    1
    40    36    32    1
    41    16    12   ar
    42    21    17   ar
    43    37    38    1
    44     9    10    1
@<TRIPOS>MOLECULE
*****
 38 44 0 0 0
SMALL
GASTEIGER

@<TRIPOS>ATOM
      1 C         138.9755  138.4407  163.1199 C.3     1  UNL1        0.0955
      2 C         137.9569  139.5279  162.9447 C.3     1  UNL1        0.0287
      3 C         137.6282  140.0334  161.5712 C.3     1  UNL1        0.0193
      4 C         138.3180  139.4518  160.3729 C.3     1  UNL1        0.0700
      5 C         139.3365  138.3646  160.5481 C.3     1  UNL1        0.0193
      6 C         139.6653  137.8591  161.9216 C.3     1  UNL1        0.0287
      7 C         138.5313  139.1424  161.1056 C.3     1  UNL1        0.1562
      8 O         138.8285  138.6853  162.3475 O.3     1  UNL1       -0.3571
      9 N         137.9892  139.9573  158.9994 N.3     1  UNL1       -0.2925
     10 H         137.0221  140.2801  159.0281 H       1  UNL1        0.1236
     11 C         138.7983  141.0663  158.3950 C.3     1  UNL1        0.1186
     12 C         139.3620  142.1464  159.2701 C.ar    1  UNL1        0.1166
     13 C         140.6929  142.1162  159.9613 C.ar    1  UNL1        0.0600
     14 C         140.8472  143.3974  160.7260 C.ar    1  UNL1        0.1825
     15 O         139.6117  144.2194  160.5074 O.2     1  UNL1       -0.3532
     16 N         138.6938  143.4462  159.6076 N.ar    1  UNL1       -0.0799
     17 C         142.0295  143.7880  161.5625 C.ar    1  UNL1        0.0666
     18 C         143.4412  143.3209  161.3662 C.ar    1  UNL1        0.0102
     19 C         144.2918  143.9585  162.4245 C.ar    1  UNL1        0.0076
     20 C         143.4057  144.8198  163.2747 C.ar    1  UNL1        0.0355
     21 S         142.0075  144.7144  162.7420 S.2     1  UNL1       -0.0833
     22 C         139.3042  137.9352  164.4933 C.3     1  UNL1        0.0604
     23 O         143.5782  140.5626  163.4387 O.2     1  UNL1       -0.2670
     24 C         142.9961  140.9071  164.7776 C.ar    1  UNL1        0.2611
     25 C         143.6678  141.9283  165.6471 C.ar    1  UNL1        0.0623
     26 C         143.0857  142.2728  166.9859 C.ar    1  UNL1        0.0254
     27 C         141.8321  141.5961  167.4553 C.ar    1  UNL1        0.0972
     28 N         141.0377  141.7402  168.7276 N.ar    1  UNL1       -0.2400
     29 C         139.7855  140.9848  169.0611 C.ar    1  UNL1        0.1282
     30 C         139.2283  139.9893  168.0872 C.ar    1  UNL1        0.1588
     31 F         137.9761  139.2339  168.4207 F       1  UNL1       -0.2027
     32 C         139.9234  139.7491  166.7798 C.ar    1  UNL1        0.0500
     33 C         141.1604  140.5750  166.5858 C.ar    1  UNL1        0.0806
     34 N         141.7425  140.2305  165.2470 N.ar    1  UNL1       -0.2915
     35 C         140.8651  139.1917  164.6135 C.3     1  UNL1        0.1402
     36 C         139.7408  138.8942  165.5609 C.3     1  UNL1        0.1335
     37 O         138.5253  138.3963  166.2851 O.3     1  UNL1       -0.3806
     38 H         138.0735  137.7329  165.7404 H       1  UNL1        0.2108
@<TRIPOS>BOND
     1    23    24    2
     2    24    25   ar
     3    25    26   ar
     4    26    27   ar
     5    27    28   ar
     6    28    29   ar
     7    29    30   ar
     8    30    31    1
     9    30    32   ar
    10    32    33   ar
    11    33    34   ar
    12    34    35    1
    13    35    36    1
    14    36    37    1
    15    36    22    1
    16    22     1    1
    17     1     2    1
    18     2     3    1
    19     3     4    1
    20     4     9    1
    21     9    11    1
    22    11    12    1
    23    12    13   ar
    24    13    14   ar
    25    14    17    1
    26    17    18   ar
    27    18    19   ar
    28    19    20   ar
    29    20    21   ar
    30    14    15   ar
    31    15    16   ar
    32     4     5    1
    33     5     6    1
    34     4     7    1
    35     7     8    1
    36    34    24   ar
    37     6     1    1
    38    33    27   ar
    39     8     1    1
    40    36    32    1
    41    16    12   ar
    42    21    17   ar
    43    37    38    1
    44     9    10    1
@<TRIPOS>MOLECULE
*****
 38 44 0 0 0
SMALL
GASTEIGER

@<TRIPOS>ATOM
      1 C         144.3775  140.7315  162.5429 C.3     1  UNL1        0.0955
      2 C         144.7311  142.1866  162.4537 C.3     1  UNL1        0.0287
      3 C         144.7076  142.8841  161.1259 C.3     1  UNL1        0.0193
      4 C         144.3304  142.1266  159.8874 C.3     1  UNL1        0.0700
      5 C         143.9768  140.6716  159.9766 C.3     1  UNL1        0.0193
      6 C         144.0004  139.9740  161.3044 C.3     1  UNL1        0.0287
      7 C         144.3291  141.7014  160.5926 C.3     1  UNL1        0.1562
      8 O         144.3504  141.0707  161.7931 O.3     1  UNL1       -0.3571
      9 N         144.3068  142.8241  158.5596 N.3     1  UNL1       -0.2925
     10 H         144.6099  142.1428  157.8637 H       1  UNL1        0.1236
     11 C         143.0300  143.4245  158.0505 C.3     1  UNL1        0.1186
     12 C         142.0385  144.0066  159.0139 C.ar    1  UNL1        0.1166
     13 C         141.1125  143.2304  159.9026 C.ar    1  UNL1        0.0600
     14 C         140.3006  144.2112  160.6956 C.ar    1  UNL1        0.1825
     15 O         140.7248  145.5936  160.2970 O.2     1  UNL1       -0.3532
     16 N         141.7990  145.4671  159.2576 N.ar    1  UNL1       -0.0799
     17 C         139.2490  143.8696  161.7093 C.ar    1  UNL1        0.0666
     18 C         138.4635  142.5933  161.7689 C.ar    1  UNL1        0.0102
     19 C         137.5274  142.6792  162.9378 C.ar    1  UNL1        0.0076
     20 C         137.7345  144.0088  163.6006 C.ar    1  UNL1        0.0355
     21 S         138.7985  144.7445  162.8414 S.2     1  UNL1       -0.0833
     22 C         144.4011  140.0340  163.8707 C.3     1  UNL1        0.0604
     23 O         140.4518  136.8822  163.0038 O.2     1  UNL1       -0.2670
     24 C         140.2268  137.7921  164.1749 C.ar    1  UNL1        0.2611
     25 C         138.9455  137.7131  164.9508 C.ar    1  UNL1        0.0623
     26 C         138.7205  138.6229  166.1219 C.ar    1  UNL1        0.0254
     27 C         139.7768  139.6118  166.5171 C.ar    1  UNL1        0.0972
     28 N         139.8240  140.6304  167.6265 N.ar    1  UNL1       -0.2400
     29 C         140.9654  141.5637  167.9021 C.ar    1  UNL1        0.1282
     30 C         142.1896  141.5277  167.0359 C.ar    1  UNL1        0.1588
     31 F         143.3310  142.4610  167.3115 F       1  UNL1       -0.2027
     32 C         142.2722  140.5583  165.8942 C.ar    1  UNL1        0.0500
     33 C         141.0581  139.6908  165.7413 C.ar    1  UNL1        0.0806
     34 N         141.2831  138.7809  164.5702 N.ar    1  UNL1       -0.2915
     35 C         142.6362  139.0861  163.9993 C.3     1  UNL1        0.1402
     36 C         143.2476  140.1846  164.8176 C.3     1  UNL1        0.1335
     37 O         144.1000  141.2516  165.4379 O.3     1  UNL1       -0.3806
     38 H         144.9363  141.3209  164.9514 H       1  UNL1        0.2108
@<TRIPOS>BOND
     1    23    24    2
     2    24    25   ar
     3    25    26   ar
     4    26    27   ar
     5    27    28   ar
     6    28    29   ar
     7    29    30   ar
     8    30    31    1
     9    30    32   ar
    10    32    33   ar
    11    33    34   ar
    12    34    35    1
    13    35    36    1
    14    36    37    1
    15    36    22    1
    16    22     1    1
    17     1     2    1
    18     2     3    1
    19     3     4    1
    20     4     9    1
    21     9    11    1
    22    11    12    1
    23    12    13   ar
    24    13    14   ar
    25    14    17    1
    26    17    18   ar
    27    18    19   ar
    28    19    20   ar
    29    20    21   ar
    30    14    15   ar
    31    15    16   ar
    32     4     5    1
    33     5     6    1
    34     4     7    1
    35     7     8    1
    36    34    24   ar
    37     6     1    1
    38    33    27   ar
    39     8     1    1
    40    36    32    1
    41    16    12   ar
    42    21    17   ar
    43    37    38    1
    44     9    10    1
@<TRIPOS>MOLECULE
*****
 38 44 0 0 0
SMALL
GASTEIGER

@<TRIPOS>ATOM
      1 C         137.8920  140.5923  162.0888 C.3     1  UNL1        0.0955
      2 C         137.7971  140.4490  163.5790 C.3     1  UNL1        0.0287
      3 C         137.7293  141.6705  164.4471 C.3     1  UNL1        0.0193
      4 C         137.7562  143.0351  163.8250 C.3     1  UNL1        0.0700
      5 C         137.8510  143.1784  162.3349 C.3     1  UNL1        0.0193
      6 C         137.9189  141.9570  161.4667 C.3     1  UNL1        0.0287
      7 C         137.7957  142.3952  163.3083 C.3     1  UNL1        0.1562
      8 O         137.8571  141.2908  162.5234 O.3     1  UNL1       -0.3571
      9 N         137.6883  144.2566  164.6930 N.3     1  UNL1       -0.2925
     10 H         137.1564  143.9980  165.5241 H       1  UNL1        0.1236
     11 C         138.9520  144.9069  165.1727 C.3     1  UNL1        0.1186
     12 C         140.2483  144.6380  164.4674 C.ar    1  UNL1        0.1166
     13 C         141.2013  143.5200  164.7700 C.ar    1  UNL1        0.0600
     14 C         142.3611  143.6310  163.8253 C.ar    1  UNL1        0.1825
     15 O         142.1249  144.8177  162.9387 O.2     1  UNL1       -0.3532
     16 N         140.8191  145.4401  163.3356 N.ar    1  UNL1       -0.0799
     17 C         143.5487  142.7159  163.7758 C.ar    1  UNL1        0.0666
     18 C         143.7665  141.5067  164.6361 C.ar    1  UNL1        0.0102
     19 C         145.0793  140.8929  164.2493 C.ar    1  UNL1        0.0076
     20 C         145.6729  141.7229  163.1498 C.ar    1  UNL1        0.0355
     21 S         144.7270  142.8495  162.8571 S.2     1  UNL1       -0.0833
     22 C         137.9598  139.3709  161.2207 C.3     1  UNL1        0.0604
     23 O         142.0493  138.4813  164.1817 O.2     1  UNL1       -0.2670
     24 C         142.3522  138.3652  162.7172 C.ar    1  UNL1        0.2611
     25 C         143.7395  138.0199  162.2633 C.ar    1  UNL1        0.0623
     26 C         144.0424  137.9038  160.7988 C.ar    1  UNL1        0.0254
     27 C         142.9580  138.1329  159.7882 C.ar    1  UNL1        0.0972
     28 N         142.9721  138.0846  158.2822 N.ar    1  UNL1       -0.2400
     29 C         141.7915  138.3404  157.3929 C.ar    1  UNL1        0.1282
     30 C         140.4590  138.6769  157.9937 C.ar    1  UNL1        0.1588
     31 F         139.2784  138.9327  157.1044 F       1  UNL1       -0.2027
     32 C         140.3069  138.7578  159.4838 C.ar    1  UNL1        0.0500
     33 C         141.5706  138.4782  160.2421 C.ar    1  UNL1        0.0806
     34 N         141.2678  138.5944  161.7066 N.ar    1  UNL1       -0.2915
     35 C         139.8169  138.9457  161.8534 C.3     1  UNL1        0.1402
     36 C         139.2230  139.0467  160.4797 C.3     1  UNL1        0.1335
     37 O         138.3652  139.2154  159.2608 O.3     1  UNL1       -0.3806
     38 H         137.4608  139.4397  159.5305 H       1  UNL1        0.2108
@<TRIPOS>BOND
     1    23    24    2
     2    24    25   ar
     3    25    26   ar
     4    26    27   ar
     5    27    28   ar
     6    28    29   ar
     7    29    30   ar
     8    30    31    1
     9    30    32   ar
    10    32    33   ar
    11    33    34   ar
    12    34    35    1
    13    35    36    1
    14    36    37    1
    15    36    22    1
    16    22     1    1
    17     1     2    1
    18     2     3    1
    19     3     4    1
    20     4     9    1
    21     9    11    1
    22    11    12    1
    23    12    13   ar
    24    13    14   ar
    25    14    17    1
    26    17    18   ar
    27    18    19   ar
    28    19    20   ar
    29    20    21   ar
    30    14    15   ar
    31    15    16   ar
    32     4     5    1
    33     5     6    1
    34     4     7    1
    35     7     8    1
    36    34    24   ar
    37     6     1    1
    38    33    27   ar
    39     8     1    1
    40    36    32    1
    41    16    12   ar
    42    21    17   ar
    43    37    38    1
    44     9    10    1
