@<TRIPOS>MOLECULE
*****
 29 32 0 0 0
SMALL
GASTEIGER

@<TRIPOS>ATOM
      1 N         143.6684  143.4904  162.1450 N.ar    1  UNL1       -0.2116
      2 N         143.9134  144.8620  162.7004 N.ar    1  UNL1       -0.1621
      3 C         143.8183  144.7806  164.1952 C.ar    1  UNL1        0.1236
      4 C         143.5145  143.3586  164.5635 C.ar    1  UNL1        0.0580
      5 C         143.3103  142.6869  165.8891 C.ar    1  UNL1        0.0209
      6 C         143.0134  141.2177  165.9475 C.ar    1  UNL1        0.0680
      7 C         142.9207  140.4203  164.6804 C.ar    1  UNL1        0.1151
      8 N         143.1250  141.0921  163.3549 N.ar    1  UNL1       -0.2237
      9 C         143.4219  142.5612  163.2964 C.ar    1  UNL1        0.1653
     10 C         144.3853  142.3113  158.5172 C.ar    1  UNL1        0.0843
     11 C         144.8251  142.5313  159.9343 C.ar    1  UNL1        0.0307
     12 C         143.6697  143.1139  160.6930 C.ar    1  UNL1        0.0915
     13 C         142.5159  143.2539  159.7448 C.ar    1  UNL1        0.0548
     14 S         142.9581  142.7579  158.4000 S.2     1  UNL1       -0.0803
     15 C         147.0447  142.0537  155.5826 C.3     1  UNL1        0.1110
     16 N         146.2047  142.6207  156.6884 N.am    1  UNL1       -0.2987
     17 C         145.2253  141.7442  157.4112 C.2     1  UNL1        0.2520
     18 O         145.0858  140.3007  157.0282 O.2     1  UNL1       -0.2696
     19 H         146.2963  143.5681  156.9398 H       1  UNL1        0.1498
     20 N         142.8091  140.5459  167.2730 N.pl3   1  UNL1       -0.3089
     21 H         143.1954  139.6556  167.4384 H       1  UNL1        0.1523
     22 C         142.0164  141.2307  168.3466 C.ar    1  UNL1        0.0868
     23 C         142.6842  142.2168  169.2587 C.ar    1  UNL1        0.1542
     24 F         144.1447  142.5180  169.0971 F       1  UNL1       -0.2028
     25 C         141.8914  142.9016  170.3323 C.ar    1  UNL1        0.0310
     26 C         140.4308  142.6003  170.4938 C.ar    1  UNL1        0.0033
     27 C         139.7631  141.6143  169.5817 C.ar    1  UNL1        0.0128
     28 C         140.5559  140.9295  168.5082 C.ar    1  UNL1        0.0732
     29 CL        139.8881  139.9434  167.5961 Cl      1  UNL1       -0.0809
@<TRIPOS>BOND
     1    15    16    1
     2    16    17   am
     3    17    18    2
     4    17    10    1
     5    10    11   ar
     6    11    12   ar
     7    12     1    1
     8     1     2   ar
     9     2     3   ar
    10     3     4   ar
    11     4     5   ar
    12     5     6   ar
    13     6    20    1
    14    20    22    1
    15    22    23   ar
    16    23    24    1
    17    23    25   ar
    18    25    26   ar
    19    26    27   ar
    20    27    28   ar
    21    28    29    1
    22     6     7   ar
    23     7     8   ar
    24     8     9   ar
    25    12    13   ar
    26    13    14   ar
    27    14    10   ar
    28     9     1   ar
    29     9     4   ar
    30    28    22   ar
    31    16    19    1
    32    20    21    1
@<TRIPOS>MOLECULE
*****
 29 32 0 0 0
SMALL
GASTEIGER

@<TRIPOS>ATOM
      1 N         140.8332  145.2464  160.1657 N.ar    1  UNL1       -0.2116
      2 N         139.6244  145.7520  160.8958 N.ar    1  UNL1       -0.1621
      3 C         139.8030  145.4484  162.3539 C.ar    1  UNL1        0.1236
      4 C         141.1222  144.7552  162.5249 C.ar    1  UNL1        0.0580
      5 C         141.8258  144.2215  163.7373 C.ar    1  UNL1        0.0209
      6 C         143.1662  143.5629  163.5973 C.ar    1  UNL1        0.0680
      7 C         143.8029  143.4380  162.2449 C.ar    1  UNL1        0.1151
      8 N         143.0992  143.9717  161.0324 N.ar    1  UNL1       -0.2237
      9 C         141.7589  144.6303  161.1724 C.ar    1  UNL1        0.1653
     10 C         140.9002  145.9976  156.3583 C.ar    1  UNL1        0.0843
     11 C         140.3347  146.2251  157.7288 C.ar    1  UNL1        0.0307
     12 C         141.0741  145.3403  158.6881 C.ar    1  UNL1        0.0915
     13 C         142.0965  144.5659  157.9105 C.ar    1  UNL1        0.0548
     14 S         141.9892  144.9721  156.4705 S.2     1  UNL1       -0.0803
     15 C         139.7027  148.8235  153.8421 C.3     1  UNL1        0.1110
     16 N         140.1479  148.1446  155.1035 N.am    1  UNL1       -0.2987
     17 C         140.4550  146.6764  155.0968 C.2     1  UNL1        0.2520
     18 O         140.3168  145.8870  153.8289 O.2     1  UNL1       -0.2696
     19 H         140.2386  148.6628  155.9357 H       1  UNL1        0.1498
     20 N         143.8699  143.0292  164.8097 N.pl3   1  UNL1       -0.3089
     21 H         144.4068  143.6326  165.3728 H       1  UNL1        0.1523
     22 C         143.7557  141.5762  165.1643 C.ar    1  UNL1        0.0868
     23 C         144.6397  140.5683  164.4914 C.ar    1  UNL1        0.1542
     24 F         145.6379  141.0134  163.4640 F       1  UNL1       -0.2028
     25 C         144.5255  139.1152  164.8459 C.ar    1  UNL1        0.0310
     26 C         143.5273  138.6701  165.8734 C.ar    1  UNL1        0.0033
     27 C         142.6434  139.6780  166.5462 C.ar    1  UNL1        0.0128
     28 C         142.7576  141.1311  166.1916 C.ar    1  UNL1        0.0732
     29 CL        141.8736  142.1390  166.8645 Cl      1  UNL1       -0.0809
@<TRIPOS>BOND
     1    15    16    1
     2    16    17   am
     3    17    18    2
     4    17    10    1
     5    10    11   ar
     6    11    12   ar
     7    12     1    1
     8     1     2   ar
     9     2     3   ar
    10     3     4   ar
    11     4     5   ar
    12     5     6   ar
    13     6    20    1
    14    20    22    1
    15    22    23   ar
    16    23    24    1
    17    23    25   ar
    18    25    26   ar
    19    26    27   ar
    20    27    28   ar
    21    28    29    1
    22     6     7   ar
    23     7     8   ar
    24     8     9   ar
    25    12    13   ar
    26    13    14   ar
    27    14    10   ar
    28     9     1   ar
    29     9     4   ar
    30    28    22   ar
    31    16    19    1
    32    20    21    1
@<TRIPOS>MOLECULE
*****
 29 32 0 0 0
SMALL
GASTEIGER

@<TRIPOS>ATOM
      1 N         139.6976  144.1348  162.5060 N.ar    1  UNL1       -0.2116
      2 N         138.9032  145.1040  163.3303 N.ar    1  UNL1       -0.1621
      3 C         139.0174  144.6921  164.7681 C.ar    1  UNL1        0.1236
      4 C         139.8823  143.4682  164.8324 C.ar    1  UNL1        0.0580
      5 C         140.3414  142.6230  165.9833 C.ar    1  UNL1        0.0209
      6 C         141.2209  141.4333  165.7362 C.ar    1  UNL1        0.0680
      7 C         141.6413  141.0888  164.3381 C.ar    1  UNL1        0.1151
      8 N         141.1822  141.9341  163.1871 N.ar    1  UNL1       -0.2237
      9 C         140.3027  143.1238  163.4343 C.ar    1  UNL1        0.1653
     10 C         140.4238  144.9025  158.7712 C.ar    1  UNL1        0.0843
     11 C         140.4670  145.2875  160.2203 C.ar    1  UNL1        0.0307
     12 C         139.8585  144.1702  161.0151 C.ar    1  UNL1        0.0915
     13 C         139.4394  143.0948  160.0571 C.ar    1  UNL1        0.0548
     14 S         139.7887  143.5473  158.6703 S.2     1  UNL1       -0.0803
     15 C         140.5185  146.8833  155.3335 C.3     1  UNL1        0.1110
     16 N         140.0150  146.0580  156.4804 N.am    1  UNL1       -0.2987
     17 C         140.9274  145.7278  157.6243 C.2     1  UNL1        0.2520
     18 O         142.3434  146.2228  157.6213 O.2     1  UNL1       -0.2696
     19 H         139.0857  145.7331  156.4824 H       1  UNL1        0.1498
     20 N         141.6800  140.5879  166.8871 N.pl3   1  UNL1       -0.3089
     21 H         142.2213  139.7825  166.7212 H       1  UNL1        0.1523
     22 C         141.3145  140.9698  168.2909 C.ar    1  UNL1        0.0868
     23 C         140.0528  140.4422  168.9073 C.ar    1  UNL1        0.1542
     24 F         139.1568  139.5328  168.1199 F       1  UNL1       -0.2028
     25 C         139.6872  140.8241  170.3110 C.ar    1  UNL1        0.0310
     26 C         140.5834  141.7336  171.0984 C.ar    1  UNL1        0.0033
     27 C         141.8450  142.2612  170.4820 C.ar    1  UNL1        0.0128
     28 C         142.2105  141.8793  169.0782 C.ar    1  UNL1        0.0732
     29 CL        143.4722  142.4069  168.4618 Cl      1  UNL1       -0.0809
@<TRIPOS>BOND
     1    15    16    1
     2    16    17   am
     3    17    18    2
     4    17    10    1
     5    10    11   ar
     6    11    12   ar
     7    12     1    1
     8     1     2   ar
     9     2     3   ar
    10     3     4   ar
    11     4     5   ar
    12     5     6   ar
    13     6    20    1
    14    20    22    1
    15    22    23   ar
    16    23    24    1
    17    23    25   ar
    18    25    26   ar
    19    26    27   ar
    20    27    28   ar
    21    28    29    1
    22     6     7   ar
    23     7     8   ar
    24     8     9   ar
    25    12    13   ar
    26    13    14   ar
    27    14    10   ar
    28     9     1   ar
    29     9     4   ar
    30    28    22   ar
    31    16    19    1
    32    20    21    1
@<TRIPOS>MOLECULE
*****
 29 32 0 0 0
SMALL
GASTEIGER

@<TRIPOS>ATOM
      1 N         142.8113  143.8760  161.8179 N.ar    1  UNL1       -0.2116
      2 N         143.9952  144.5676  162.4262 N.ar    1  UNL1       -0.1621
      3 C         144.0401  144.2144  163.8833 C.ar    1  UNL1        0.1236
      4 C         142.8839  143.3045  164.1756 C.ar    1  UNL1        0.0580
      5 C         142.4246  142.6395  165.4392 C.ar    1  UNL1        0.0209
      6 C         141.2058  141.7652  165.4262 C.ar    1  UNL1        0.0680
      7 C         140.4463  141.5561  164.1497 C.ar    1  UNL1        0.1151
      8 N         140.9057  142.2211  162.8861 N.ar    1  UNL1       -0.2237
      9 C         142.1245  143.0953  162.8991 C.ar    1  UNL1        0.1653
     10 C         141.1762  144.5279  158.3586 C.ar    1  UNL1        0.0843
     11 C         141.2314  144.7401  159.8425 C.ar    1  UNL1        0.0307
     12 C         142.3884  143.9516  160.3807 C.ar    1  UNL1        0.0915
     13 C         143.0482  143.2522  159.2295 C.ar    1  UNL1        0.0548
     14 S         142.2991  143.6084  157.9797 S.2     1  UNL1       -0.0803
     15 C         139.1876  147.2072  156.2097 C.3     1  UNL1        0.1110
     16 N         140.1897  146.6054  157.1497 N.am    1  UNL1       -0.2987
     17 C         140.1740  145.1297  157.4186 C.2     1  UNL1        0.2520
     18 O         139.1561  144.2559  156.7476 O.2     1  UNL1       -0.2696
     19 H         140.8578  147.1789  157.5901 H       1  UNL1        0.1498
     20 N         140.7464  141.1001  166.6898 N.pl3   1  UNL1       -0.3089
     21 H         140.0599  140.3953  166.6536 H       1  UNL1        0.1523
     22 C         141.3328  141.5089  168.0085 C.ar    1  UNL1        0.0868
     23 C         140.9099  142.7970  168.6504 C.ar    1  UNL1        0.1542
     24 F         139.9006  143.6763  167.9736 F       1  UNL1       -0.2028
     25 C         141.4964  143.2058  169.9691 C.ar    1  UNL1        0.0310
     26 C         142.5058  142.3264  170.6459 C.ar    1  UNL1        0.0033
     27 C         142.9286  141.0384  170.0040 C.ar    1  UNL1        0.0128
     28 C         142.3422  140.6296  168.6853 C.ar    1  UNL1        0.0732
     29 CL        142.7651  139.3415  168.0434 Cl      1  UNL1       -0.0809
@<TRIPOS>BOND
     1    15    16    1
     2    16    17   am
     3    17    18    2
     4    17    10    1
     5    10    11   ar
     6    11    12   ar
     7    12     1    1
     8     1     2   ar
     9     2     3   ar
    10     3     4   ar
    11     4     5   ar
    12     5     6   ar
    13     6    20    1
    14    20    22    1
    15    22    23   ar
    16    23    24    1
    17    23    25   ar
    18    25    26   ar
    19    26    27   ar
    20    27    28   ar
    21    28    29    1
    22     6     7   ar
    23     7     8   ar
    24     8     9   ar
    25    12    13   ar
    26    13    14   ar
    27    14    10   ar
    28     9     1   ar
    29     9     4   ar
    30    28    22   ar
    31    16    19    1
    32    20    21    1
@<TRIPOS>MOLECULE
*****
 29 32 0 0 0
SMALL
GASTEIGER

@<TRIPOS>ATOM
      1 N         142.6706  143.8724  161.7791 N.ar    1  UNL1       -0.2116
      2 N         143.9554  144.3490  162.3890 N.ar    1  UNL1       -0.1621
      3 C         143.9108  144.0484  163.8579 C.ar    1  UNL1        0.1236
      4 C         142.5984  143.3860  164.1559 C.ar    1  UNL1        0.0580
      5 C         142.0023  142.8678  165.4310 C.ar    1  UNL1        0.0209
      6 C         140.6397  142.2409  165.4215 C.ar    1  UNL1        0.0680
      7 C         139.8732  142.1321  164.1367 C.ar    1  UNL1        0.1151
      8 N         140.4692  142.6503  162.8616 N.ar    1  UNL1       -0.2237
      9 C         141.8319  143.2772  162.8711 C.ar    1  UNL1        0.1653
     10 C         141.1285  144.5699  158.2862 C.ar    1  UNL1        0.0843
     11 C         141.1322  144.7468  159.7757 C.ar    1  UNL1        0.0307
     12 C         142.2910  143.9732  160.3315 C.ar    1  UNL1        0.0915
     13 C         143.0034  143.3183  159.1855 C.ar    1  UNL1        0.0548
     14 S         142.2851  143.6870  157.9213 S.2     1  UNL1       -0.0803
     15 C         139.1783  147.2455  156.0980 C.3     1  UNL1        0.1110
     16 N         140.1652  146.6449  157.0548 N.am    1  UNL1       -0.2987
     17 C         140.1416  145.1704  157.3294 C.2     1  UNL1        0.2520
     18 O         139.1312  144.2966  156.6472 O.2     1  UNL1       -0.2696
     19 H         140.8284  147.2185  157.5025 H       1  UNL1        0.1498
     20 N         140.0436  141.7227  166.6967 N.pl3   1  UNL1       -0.3089
     21 H         139.0656  141.6863  166.8038 H       1  UNL1        0.1523
     22 C         140.9375  141.2599  167.8088 C.ar    1  UNL1        0.0868
     23 C         141.6493  139.9439  167.7007 C.ar    1  UNL1        0.1542
     24 F         141.4670  139.0907  166.4806 F       1  UNL1       -0.2028
     25 C         142.5432  139.4812  168.8128 C.ar    1  UNL1        0.0310
     26 C         142.7255  140.3345  170.0329 C.ar    1  UNL1        0.0033
     27 C         142.0137  141.6504  170.1410 C.ar    1  UNL1        0.0128
     28 C         141.1198  142.1132  169.0289 C.ar    1  UNL1        0.0732
     29 CL        140.4080  143.4292  169.1370 Cl      1  UNL1       -0.0809
@<TRIPOS>BOND
     1    15    16    1
     2    16    17   am
     3    17    18    2
     4    17    10    1
     5    10    11   ar
     6    11    12   ar
     7    12     1    1
     8     1     2   ar
     9     2     3   ar
    10     3     4   ar
    11     4     5   ar
    12     5     6   ar
    13     6    20    1
    14    20    22    1
    15    22    23   ar
    16    23    24    1
    17    23    25   ar
    18    25    26   ar
    19    26    27   ar
    20    27    28   ar
    21    28    29    1
    22     6     7   ar
    23     7     8   ar
    24     8     9   ar
    25    12    13   ar
    26    13    14   ar
    27    14    10   ar
    28     9     1   ar
    29     9     4   ar
    30    28    22   ar
    31    16    19    1
    32    20    21    1
@<TRIPOS>MOLECULE
*****
 29 32 0 0 0
SMALL
GASTEIGER

@<TRIPOS>ATOM
      1 N         138.8214  143.3430  162.2203 N.ar    1  UNL1       -0.2116
      2 N         137.7052  144.1448  162.8212 N.ar    1  UNL1       -0.1621
      3 C         137.9833  144.3006  164.2869 C.ar    1  UNL1        0.1236
      4 C         139.2715  143.5952  164.5918 C.ar    1  UNL1        0.0580
      5 C         140.0397  143.4153  165.8675 C.ar    1  UNL1        0.0209
      6 C         141.3259  142.6435  165.8660 C.ar    1  UNL1        0.0680
      7 C         141.8439  142.0517  164.5887 C.ar    1  UNL1        0.1151
      8 N         141.0757  142.2316  163.3130 N.ar    1  UNL1       -0.2237
      9 C         139.7895  143.0033  163.3146 C.ar    1  UNL1        0.1653
     10 C         138.5858  141.8488  158.6458 C.ar    1  UNL1        0.0843
     11 C         138.1224  141.9161  160.0708 C.ar    1  UNL1        0.0307
     12 C         138.9475  142.9499  160.7782 C.ar    1  UNL1        0.0915
     13 C         139.9208  143.5215  159.7904 C.ar    1  UNL1        0.0548
     14 S         139.6973  142.8410  158.4724 S.2     1  UNL1       -0.0803
     15 C         136.3769  140.5278  155.6247 C.3     1  UNL1        0.1110
     16 N         136.9283  141.4291  156.6895 N.am    1  UNL1       -0.2987
     17 C         138.0344  140.9475  157.5809 C.2     1  UNL1        0.2520
     18 O         138.5891  139.5647  157.4076 O.2     1  UNL1       -0.2696
     19 H         136.5642  142.3367  156.8033 H       1  UNL1        0.1498
     20 N         142.0942  142.4636  167.1417 N.pl3   1  UNL1       -0.3089
     21 H         143.0109  142.8145  167.2179 H       1  UNL1        0.1523
     22 C         141.4657  141.7491  168.3012 C.ar    1  UNL1        0.0868
     23 C         140.5148  142.4769  169.2046 C.ar    1  UNL1        0.1542
     24 F         140.1924  143.9192  168.9484 F       1  UNL1       -0.2028
     25 C         139.8864  141.7624  170.3641 C.ar    1  UNL1        0.0310
     26 C         140.2089  140.3200  170.6203 C.ar    1  UNL1        0.0033
     27 C         141.1598  139.5922  169.7169 C.ar    1  UNL1        0.0128
     28 C         141.7882  140.3067  168.5574 C.ar    1  UNL1        0.0732
     29 CL        142.7391  139.5789  167.6540 Cl      1  UNL1       -0.0809
@<TRIPOS>BOND
     1    15    16    1
     2    16    17   am
     3    17    18    2
     4    17    10    1
     5    10    11   ar
     6    11    12   ar
     7    12     1    1
     8     1     2   ar
     9     2     3   ar
    10     3     4   ar
    11     4     5   ar
    12     5     6   ar
    13     6    20    1
    14    20    22    1
    15    22    23   ar
    16    23    24    1
    17    23    25   ar
    18    25    26   ar
    19    26    27   ar
    20    27    28   ar
    21    28    29    1
    22     6     7   ar
    23     7     8   ar
    24     8     9   ar
    25    12    13   ar
    26    13    14   ar
    27    14    10   ar
    28     9     1   ar
    29     9     4   ar
    30    28    22   ar
    31    16    19    1
    32    20    21    1
@<TRIPOS>MOLECULE
*****
 29 32 0 0 0
SMALL
GASTEIGER

@<TRIPOS>ATOM
      1 N         139.1847  138.9452  161.7484 N.ar    1  UNL1       -0.2116
      2 N         138.4957  137.7843  162.4024 N.ar    1  UNL1       -0.1621
      3 C         138.9386  137.7293  163.8344 C.ar    1  UNL1        0.1236
      4 C         139.9013  138.8562  164.0655 C.ar    1  UNL1        0.0580
      5 C         140.6590  139.2951  165.2833 C.ar    1  UNL1        0.0209
      6 C         141.5689  140.4854  165.2119 C.ar    1  UNL1        0.0680
      7 C         141.7210  141.2369  163.9227 C.ar    1  UNL1        0.1151
      8 N         140.9632  140.7980  162.7048 N.ar    1  UNL1       -0.2237
      9 C         140.0534  139.6076  162.7763 C.ar    1  UNL1        0.1653
     10 C         138.1763  140.4033  158.2955 C.ar    1  UNL1        0.0843
     11 C         137.9383  140.2359  159.7671 C.ar    1  UNL1        0.0307
     12 C         139.0318  139.3692  160.3177 C.ar    1  UNL1        0.0915
     13 C         139.9454  139.0011  159.1866 C.ar    1  UNL1        0.0548
     14 S         139.4168  139.6401  157.9367 S.2     1  UNL1       -0.0803
     15 C         135.4190  141.2970  155.5846 C.3     1  UNL1        0.1110
     16 N         136.2718  140.5054  156.5312 N.am    1  UNL1       -0.2987
     17 C         137.3234  141.1950  157.3490 C.2     1  UNL1        0.2520
     18 O         137.5220  142.6762  157.2202 O.2     1  UNL1       -0.2696
     19 H         136.1414  139.5333  156.6157 H       1  UNL1        0.1498
     20 N         142.3267  140.9244  166.4298 N.pl3   1  UNL1       -0.3089
     21 H         143.2364  141.2894  166.3384 H       1  UNL1        0.1523
     22 C         141.6983  140.8072  167.7868 C.ar    1  UNL1        0.0868
     23 C         142.0586  139.6599  168.6835 C.ar    1  UNL1        0.1542
     24 F         143.0471  138.6299  168.2232 F       1  UNL1       -0.2028
     25 C         141.4302  139.5427  170.0405 C.ar    1  UNL1        0.0310
     26 C         140.4416  140.5727  170.5008 C.ar    1  UNL1        0.0033
     27 C         140.0815  141.7199  169.6040 C.ar    1  UNL1        0.0128
     28 C         140.7098  141.8372  168.2470 C.ar    1  UNL1        0.0732
     29 CL        140.3496  142.9844  167.3503 Cl      1  UNL1       -0.0809
@<TRIPOS>BOND
     1    15    16    1
     2    16    17   am
     3    17    18    2
     4    17    10    1
     5    10    11   ar
     6    11    12   ar
     7    12     1    1
     8     1     2   ar
     9     2     3   ar
    10     3     4   ar
    11     4     5   ar
    12     5     6   ar
    13     6    20    1
    14    20    22    1
    15    22    23   ar
    16    23    24    1
    17    23    25   ar
    18    25    26   ar
    19    26    27   ar
    20    27    28   ar
    21    28    29    1
    22     6     7   ar
    23     7     8   ar
    24     8     9   ar
    25    12    13   ar
    26    13    14   ar
    27    14    10   ar
    28     9     1   ar
    29     9     4   ar
    30    28    22   ar
    31    16    19    1
    32    20    21    1
@<TRIPOS>MOLECULE
*****
 29 32 0 0 0
SMALL
GASTEIGER

@<TRIPOS>ATOM
      1 N         142.6479  139.1127  158.0069 N.ar    1  UNL1       -0.2116
      2 N         142.8506  140.5341  157.5724 N.ar    1  UNL1       -0.1621
      3 C         143.4856  141.2798  158.7085 C.ar    1  UNL1        0.1236
      4 C         143.6754  140.3194  159.8450 C.ar    1  UNL1        0.0580
      5 C         144.2528  140.4915  161.2186 C.ar    1  UNL1        0.0209
      6 C         144.3125  139.3242  162.1586 C.ar    1  UNL1        0.0680
      7 C         143.7947  137.9848  161.7250 C.ar    1  UNL1        0.1151
      8 N         143.2174  137.8127  160.3514 N.ar    1  UNL1       -0.2237
      9 C         143.1577  138.9801  159.4113 C.ar    1  UNL1        0.1653
     10 C         141.6741  135.8740  156.1022 C.ar    1  UNL1        0.0843
     11 C         142.5994  136.6352  157.0046 C.ar    1  UNL1        0.0307
     12 C         142.0419  138.0165  157.1817 C.ar    1  UNL1        0.0915
     13 C         140.7721  138.1089  156.3887 C.ar    1  UNL1        0.0548
     14 S         140.5446  136.7848  155.7215 S.2     1  UNL1       -0.0803
     15 C         142.7419  132.0517  156.0949 C.3     1  UNL1        0.1110
     16 N         142.5683  133.4740  156.5386 N.am    1  UNL1       -0.2987
     17 C         141.8476  134.4517  155.6584 C.2     1  UNL1        0.2520
     18 O         141.3005  134.0071  154.3344 O.2     1  UNL1       -0.2696
     19 H         142.9274  133.7658  157.4076 H       1  UNL1        0.1498
     20 N         144.8899  139.4962  163.5324 N.pl3   1  UNL1       -0.3089
     21 H         145.7201  139.0283  163.7795 H       1  UNL1        0.1523
     22 C         144.2023  140.3810  164.5295 C.ar    1  UNL1        0.0868
     23 C         144.5318  141.8433  164.5874 C.ar    1  UNL1        0.1542
     24 F         145.5489  142.4206  163.6482 F       1  UNL1       -0.2028
     25 C         143.8443  142.7281  165.5845 C.ar    1  UNL1        0.0310
     26 C         142.8271  142.1507  166.5238 C.ar    1  UNL1        0.0033
     27 C         142.4976  140.6885  166.4659 C.ar    1  UNL1        0.0128
     28 C         143.1852  139.8037  165.4688 C.ar    1  UNL1        0.0732
     29 CL        142.8556  138.3414  165.4109 Cl      1  UNL1       -0.0809
@<TRIPOS>BOND
     1    15    16    1
     2    16    17   am
     3    17    18    2
     4    17    10    1
     5    10    11   ar
     6    11    12   ar
     7    12     1    1
     8     1     2   ar
     9     2     3   ar
    10     3     4   ar
    11     4     5   ar
    12     5     6   ar
    13     6    20    1
    14    20    22    1
    15    22    23   ar
    16    23    24    1
    17    23    25   ar
    18    25    26   ar
    19    26    27   ar
    20    27    28   ar
    21    28    29    1
    22     6     7   ar
    23     7     8   ar
    24     8     9   ar
    25    12    13   ar
    26    13    14   ar
    27    14    10   ar
    28     9     1   ar
    29     9     4   ar
    30    28    22   ar
    31    16    19    1
    32    20    21    1
@<TRIPOS>MOLECULE
*****
 29 32 0 0 0
SMALL
GASTEIGER

@<TRIPOS>ATOM
      1 N         139.5212  143.5803  157.5664 N.ar    1  UNL1       -0.2116
      2 N         140.4040  144.5938  156.9005 N.ar    1  UNL1       -0.1621
      3 C         140.9922  145.4685  157.9676 C.ar    1  UNL1        0.1236
      4 C         140.4730  144.9956  159.2931 C.ar    1  UNL1        0.0580
      5 C         140.7106  145.4769  160.6937 C.ar    1  UNL1        0.0209
      6 C         140.0390  144.7912  161.8464 C.ar    1  UNL1        0.0680
      7 C         139.1298  143.6241  161.5984 C.ar    1  UNL1        0.1151
      8 N         138.8922  143.1429  160.1977 N.ar    1  UNL1       -0.2237
      9 C         139.5638  143.8286  159.0451 C.ar    1  UNL1        0.1653
     10 C         136.8849  141.1648  156.0562 C.ar    1  UNL1        0.0843
     11 C         137.2396  142.3771  156.8653 C.ar    1  UNL1        0.0307
     12 C         138.7340  142.5069  156.8750 C.ar    1  UNL1        0.0915
     13 C         139.3028  141.3749  156.0720 C.ar    1  UNL1        0.0548
     14 S         138.1601  140.5453  155.5659 S.2     1  UNL1       -0.0803
     15 C         132.9670  141.1212  155.4247 C.3     1  UNL1        0.1110
     16 N         134.3535  141.6254  155.6958 N.am    1  UNL1       -0.2987
     17 C         135.4984  140.6605  155.7851 C.2     1  UNL1        0.2520
     18 O         135.2570  139.1913  155.6032 O.2     1  UNL1       -0.2696
     19 H         134.5120  142.5897  155.8152 H       1  UNL1        0.1498
     20 N         140.2765  145.2724  163.2472 N.pl3   1  UNL1       -0.3089
     21 H         140.1397  146.2212  163.4716 H       1  UNL1        0.1523
     22 C         140.7226  144.3081  164.3059 C.ar    1  UNL1        0.0868
     23 C         139.7383  143.7925  165.3136 C.ar    1  UNL1        0.1542
     24 F         138.3079  144.2412  165.2624 F       1  UNL1       -0.2028
     25 C         140.1844  142.8281  166.3724 C.ar    1  UNL1        0.0310
     26 C         141.6148  142.3794  166.4235 C.ar    1  UNL1        0.0033
     27 C         142.5991  142.8950  165.4159 C.ar    1  UNL1        0.0128
     28 C         142.1530  143.8593  164.3571 C.ar    1  UNL1        0.0732
     29 CL        143.1374  144.3750  163.3495 Cl      1  UNL1       -0.0809
@<TRIPOS>BOND
     1    15    16    1
     2    16    17   am
     3    17    18    2
     4    17    10    1
     5    10    11   ar
     6    11    12   ar
     7    12     1    1
     8     1     2   ar
     9     2     3   ar
    10     3     4   ar
    11     4     5   ar
    12     5     6   ar
    13     6    20    1
    14    20    22    1
    15    22    23   ar
    16    23    24    1
    17    23    25   ar
    18    25    26   ar
    19    26    27   ar
    20    27    28   ar
    21    28    29    1
    22     6     7   ar
    23     7     8   ar
    24     8     9   ar
    25    12    13   ar
    26    13    14   ar
    27    14    10   ar
    28     9     1   ar
    29     9     4   ar
    30    28    22   ar
    31    16    19    1
    32    20    21    1
