@<TRIPOS>MOLECULE
*****
 33 36 0 0 0
SMALL
GASTEIGER

@<TRIPOS>ATOM
      1 C         142.1742  140.0272  164.2533 C.2     1  UNL1        0.1397
      2 C         142.6472  140.2885  162.8541 C.2     1  UNL1        0.1355
      3 N         142.2031  141.5254  162.1310 N.pl3   1  UNL1       -0.2002
      4 C         141.2860  142.5009  162.8071 C.2     1  UNL1        0.3379
      5 N         140.8130  142.2396  164.2063 N.2     1  UNL1       -0.0585
      6 C         141.2571  141.0027  164.9294 C.3     1  UNL1        0.2691
      7 H         142.5136  141.6969  161.2126 H       1  UNL1        0.2983
      8 C         140.7841  140.7414  166.3287 C.ar    1  UNL1        0.0371
      9 C         139.5273  139.9562  166.5612 C.ar    1  UNL1        0.0030
     10 C         139.0542  139.6949  167.9604 C.ar    1  UNL1        0.0295
     11 C         139.8379  140.2187  169.1273 C.ar    1  UNL1        0.1406
     12 F         139.3649  139.9574  170.5265 F       1  UNL1       -0.2042
     13 C         141.0947  141.0039  168.8948 C.ar    1  UNL1        0.0362
     14 C         141.5678  141.2652  167.4955 C.ar    1  UNL1        0.0372
     15 BR        142.8245  142.0504  167.2630 Br      1  UNL1       -0.0491
     16 C         140.8419  143.7378  162.0840 C.ar    1  UNL1        0.1630
     17 C         140.0089  144.7634  162.7940 C.ar    1  UNL1        0.0267
     18 C         139.5648  146.0002  162.0709 C.ar    1  UNL1        0.0034
     19 C         139.9537  146.2115  160.6377 C.ar    1  UNL1        0.0207
     20 C         140.7867  145.1860  159.9277 C.ar    1  UNL1        0.0991
     21 N         141.2308  143.9491  160.6508 N.ar    1  UNL1       -0.2364
     22 C         142.6183  138.7903  164.9764 C.2     1  UNL1        0.3447
     23 O         143.9347  138.7737  165.6953 O.2     1  UNL1       -0.2450
     24 O         141.7461  137.5700  164.9807 O.3     1  UNL1       -0.4455
     25 C         139.5190  137.5961  163.6429 C.3     1  UNL1        0.0513
     26 C         140.9625  137.2039  163.7551 C.3     1  UNL1        0.2089
     27 C         143.5644  139.3129  162.1779 C.3     1  UNL1        0.1405
     28 N         143.4438  139.0687  160.7029 N.3     1  UNL1       -0.2617
     29 C         143.9016  140.1142  159.7296 C.3     1  UNL1        0.1050
     30 C         143.7809  139.8699  158.2545 C.3     1  UNL1        0.1595
     31 O         143.2024  138.5802  157.7527 O.3     1  UNL1       -0.3508
     32 C         142.7446  137.5346  158.7260 C.3     1  UNL1        0.1595
     33 C         142.8652  137.7789  160.2010 C.3     1  UNL1        0.1050
@<TRIPOS>BOND
     1    25    26    1
     2    26    24    1
     3    24    22    1
     4    22    23    2
     5    22     1    1
     6     1     2    2
     7     2    27    1
     8    27    28    1
     9    28    29    1
    10    29    30    1
    11    30    31    1
    12    31    32    1
    13    32    33    1
    14     2     3    1
    15     3     4    1
    16     4    16    1
    17    16    17   ar
    18    17    18   ar
    19    18    19   ar
    20    19    20   ar
    21    20    21   ar
    22     4     5    2
    23     5     6    1
    24     6     8    1
    25     8     9   ar
    26     9    10   ar
    27    10    11   ar
    28    11    12    1
    29    11    13   ar
    30    13    14   ar
    31    14    15    1
    32     6     1    1
    33    14     8   ar
    34    33    28    1
    35    21    16   ar
    36     3     7    1
@<TRIPOS>MOLECULE
*****
 33 36 0 0 0
SMALL
GASTEIGER

@<TRIPOS>ATOM
      1 C         139.3363  141.0226  160.9931 C.2     1  UNL1        0.1397
      2 C         139.4035  140.2937  159.6839 C.2     1  UNL1        0.1355
      3 N         139.0682  141.0093  158.4090 N.pl3   1  UNL1       -0.2002
      4 C         138.6658  142.4539  158.4432 C.2     1  UNL1        0.3379
      5 N         138.5987  143.1828  159.7524 N.2     1  UNL1       -0.0585
      6 C         138.9339  142.4672  161.0274 C.3     1  UNL1        0.2691
      7 H         139.1123  140.5308  157.5497 H       1  UNL1        0.2983
      8 C         138.8667  143.1962  162.3367 C.ar    1  UNL1        0.0371
      9 C         137.6096  143.1556  163.1540 C.ar    1  UNL1        0.0030
     10 C         137.5424  143.8846  164.4632 C.ar    1  UNL1        0.0295
     11 C         138.7323  144.6541  164.9551 C.ar    1  UNL1        0.1406
     12 F         138.6651  145.3831  166.2643 F       1  UNL1       -0.2042
     13 C         139.9894  144.6947  164.1378 C.ar    1  UNL1        0.0362
     14 C         140.0566  143.9657  162.8285 C.ar    1  UNL1        0.0372
     15 BR        141.3137  144.0063  162.0112 Br      1  UNL1       -0.0491
     16 C         138.3306  143.1695  157.1683 C.ar    1  UNL1        0.1630
     17 C         137.0794  142.8198  156.4186 C.ar    1  UNL1        0.0267
     18 C         136.7442  143.5354  155.1436 C.ar    1  UNL1        0.0034
     19 C         137.6601  144.6008  154.6184 C.ar    1  UNL1        0.0207
     20 C         138.9113  144.9506  155.3681 C.ar    1  UNL1        0.0991
     21 N         139.2465  144.2349  156.6431 N.ar    1  UNL1       -0.2364
     22 C         139.6715  140.3069  162.2680 C.2     1  UNL1        0.3447
     23 O         141.0722  140.3449  162.8035 O.2     1  UNL1       -0.2450
     24 O         138.6061  139.5533  163.0076 O.3     1  UNL1       -0.4455
     25 C         139.1673  137.7235  164.7645 C.3     1  UNL1        0.0513
     26 C         138.8148  138.1100  163.3587 C.3     1  UNL1        0.2089
     27 C         139.8059  138.8490  159.6496 C.3     1  UNL1        0.1405
     28 N         140.5755  138.3124  158.4792 N.3     1  UNL1       -0.2617
     29 C         139.8470  137.7012  157.3191 C.3     1  UNL1        0.1050
     30 C         140.6167  137.1647  156.1488 C.3     1  UNL1        0.1595
     31 O         142.1148  137.2393  156.1385 O.3     1  UNL1       -0.3508
     32 C         142.8433  137.8505  157.2986 C.3     1  UNL1        0.1595
     33 C         142.0736  138.3870  158.4689 C.3     1  UNL1        0.1050
@<TRIPOS>BOND
     1    25    26    1
     2    26    24    1
     3    24    22    1
     4    22    23    2
     5    22     1    1
     6     1     2    2
     7     2    27    1
     8    27    28    1
     9    28    29    1
    10    29    30    1
    11    30    31    1
    12    31    32    1
    13    32    33    1
    14     2     3    1
    15     3     4    1
    16     4    16    1
    17    16    17   ar
    18    17    18   ar
    19    18    19   ar
    20    19    20   ar
    21    20    21   ar
    22     4     5    2
    23     5     6    1
    24     6     8    1
    25     8     9   ar
    26     9    10   ar
    27    10    11   ar
    28    11    12    1
    29    11    13   ar
    30    13    14   ar
    31    14    15    1
    32     6     1    1
    33    14     8   ar
    34    33    28    1
    35    21    16   ar
    36     3     7    1
@<TRIPOS>MOLECULE
*****
 33 36 0 0 0
SMALL
GASTEIGER

@<TRIPOS>ATOM
      1 C         142.1508  143.2538  160.3773 C.2     1  UNL1        0.1397
      2 C         143.0619  143.2345  159.1859 C.2     1  UNL1        0.1355
      3 N         142.6929  143.9959  157.9472 N.pl3   1  UNL1       -0.2002
      4 C         141.4129  144.7764  157.9000 C.2     1  UNL1        0.3379
      5 N         140.5019  144.7956  159.0915 N.2     1  UNL1       -0.0585
      6 C         140.8708  144.0343  160.3301 C.3     1  UNL1        0.2691
      7 H         143.2909  143.9832  157.1652 H       1  UNL1        0.2983
      8 C         139.9597  144.0536  161.5216 C.ar    1  UNL1        0.0371
      9 C         140.2105  145.0189  162.6420 C.ar    1  UNL1        0.0030
     10 C         139.2994  145.0382  163.8334 C.ar    1  UNL1        0.0295
     11 C         138.1375  144.0921  163.9045 C.ar    1  UNL1        0.1406
     12 F         137.2265  144.1114  165.0960 F       1  UNL1       -0.2042
     13 C         137.8867  143.1268  162.7842 C.ar    1  UNL1        0.0362
     14 C         138.7979  143.1075  161.5927 C.ar    1  UNL1        0.0372
     15 BR        138.5471  142.1422  160.4723 Br      1  UNL1       -0.0491
     16 C         141.0439  145.5377  156.6614 C.ar    1  UNL1        0.1630
     17 C         139.9365  146.5485  156.7042 C.ar    1  UNL1        0.0267
     18 C         139.5675  147.3098  155.4656 C.ar    1  UNL1        0.0034
     19 C         140.3060  147.0604  154.1841 C.ar    1  UNL1        0.0207
     20 C         141.4135  146.0496  154.1412 C.ar    1  UNL1        0.0991
     21 N         141.7824  145.2883  155.3798 N.ar    1  UNL1       -0.2364
     22 C         142.5198  142.4924  161.6160 C.2     1  UNL1        0.3447
     23 O         141.8068  141.2163  161.9523 O.2     1  UNL1       -0.2450
     24 O         143.6018  143.0072  162.5183 O.3     1  UNL1       -0.4455
     25 C         143.6357  145.1251  164.0228 C.3     1  UNL1        0.0513
     26 C         143.8062  144.4847  162.6771 C.3     1  UNL1        0.2089
     27 C         144.3420  142.4539  159.2330 C.3     1  UNL1        0.1405
     28 N         144.9296  141.9000  157.9690 N.3     1  UNL1       -0.2617
     29 C         146.1631  142.5190  157.3812 C.3     1  UNL1        0.1050
     30 C         146.7507  141.9651  156.1171 C.3     1  UNL1        0.1595
     31 O         146.1050  140.7922  155.4409 O.3     1  UNL1       -0.3508
     32 C         144.8715  140.1732  156.0287 C.3     1  UNL1        0.1595
     33 C         144.2839  140.7271  157.2927 C.3     1  UNL1        0.1050
@<TRIPOS>BOND
     1    25    26    1
     2    26    24    1
     3    24    22    1
     4    22    23    2
     5    22     1    1
     6     1     2    2
     7     2    27    1
     8    27    28    1
     9    28    29    1
    10    29    30    1
    11    30    31    1
    12    31    32    1
    13    32    33    1
    14     2     3    1
    15     3     4    1
    16     4    16    1
    17    16    17   ar
    18    17    18   ar
    19    18    19   ar
    20    19    20   ar
    21    20    21   ar
    22     4     5    2
    23     5     6    1
    24     6     8    1
    25     8     9   ar
    26     9    10   ar
    27    10    11   ar
    28    11    12    1
    29    11    13   ar
    30    13    14   ar
    31    14    15    1
    32     6     1    1
    33    14     8   ar
    34    33    28    1
    35    21    16   ar
    36     3     7    1
@<TRIPOS>MOLECULE
*****
 33 36 0 0 0
SMALL
GASTEIGER

@<TRIPOS>ATOM
      1 C         140.3949  141.1671  161.0019 C.2     1  UNL1        0.1397
      2 C         140.5976  140.3561  159.7565 C.2     1  UNL1        0.1355
      3 N         139.6821  140.5424  158.5829 N.pl3   1  UNL1       -0.2002
      4 C         138.5639  141.5395  158.6548 C.2     1  UNL1        0.3379
      5 N         138.3612  142.3505  159.9003 N.2     1  UNL1       -0.0585
      6 C         139.2767  142.1642  161.0739 C.3     1  UNL1        0.2691
      7 H         139.8152  140.0101  157.7655 H       1  UNL1        0.2983
      8 C         139.0739  142.9752  162.3194 C.ar    1  UNL1        0.0371
      9 C         139.8008  144.2756  162.4942 C.ar    1  UNL1        0.0030
     10 C         139.5980  145.0866  163.7397 C.ar    1  UNL1        0.0295
     11 C         138.6683  144.5972  164.8103 C.ar    1  UNL1        0.1406
     12 F         138.4656  145.4082  166.0557 F       1  UNL1       -0.2042
     13 C         137.9414  143.2969  164.6355 C.ar    1  UNL1        0.0362
     14 C         138.1442  142.4858  163.3899 C.ar    1  UNL1        0.0372
     15 BR        137.4173  141.1855  163.2151 Br      1  UNL1       -0.0491
     16 C         137.6485  141.7258  157.4813 C.ar    1  UNL1        0.1630
     17 C         137.7147  142.9863  156.6710 C.ar    1  UNL1        0.0267
     18 C         136.7992  143.1726  155.4975 C.ar    1  UNL1        0.0034
     19 C         135.8175  142.0982  155.1342 C.ar    1  UNL1        0.0207
     20 C         135.7513  140.8377  155.9444 C.ar    1  UNL1        0.0991
     21 N         136.6668  140.6514  157.1180 N.ar    1  UNL1       -0.2364
     22 C         141.3103  140.9808  162.1755 C.2     1  UNL1        0.3447
     23 O         142.6486  141.6580  162.1976 O.2     1  UNL1       -0.2450
     24 O         140.8876  140.1175  163.3269 O.3     1  UNL1       -0.4455
     25 C         139.7235  137.9138  162.5929 C.3     1  UNL1        0.0513
     26 C         140.9025  138.6239  163.1895 C.3     1  UNL1        0.2089
     27 C         141.7159  139.3589  159.6845 C.3     1  UNL1        0.1405
     28 N         142.6257  139.3371  158.4922 N.3     1  UNL1       -0.2617
     29 C         143.6346  140.4301  158.2986 C.3     1  UNL1        0.1050
     30 C         144.5445  140.4083  157.1062 C.3     1  UNL1        0.1595
     31 O         144.4455  139.2934  156.1076 O.3     1  UNL1       -0.3508
     32 C         143.4367  138.2004  156.3013 C.3     1  UNL1        0.1595
     33 C         142.5268  138.2222  157.4936 C.3     1  UNL1        0.1050
@<TRIPOS>BOND
     1    25    26    1
     2    26    24    1
     3    24    22    1
     4    22    23    2
     5    22     1    1
     6     1     2    2
     7     2    27    1
     8    27    28    1
     9    28    29    1
    10    29    30    1
    11    30    31    1
    12    31    32    1
    13    32    33    1
    14     2     3    1
    15     3     4    1
    16     4    16    1
    17    16    17   ar
    18    17    18   ar
    19    18    19   ar
    20    19    20   ar
    21    20    21   ar
    22     4     5    2
    23     5     6    1
    24     6     8    1
    25     8     9   ar
    26     9    10   ar
    27    10    11   ar
    28    11    12    1
    29    11    13   ar
    30    13    14   ar
    31    14    15    1
    32     6     1    1
    33    14     8   ar
    34    33    28    1
    35    21    16   ar
    36     3     7    1
@<TRIPOS>MOLECULE
*****
 33 36 0 0 0
SMALL
GASTEIGER

@<TRIPOS>ATOM
      1 C         140.6082  141.6482  160.7528 C.2     1  UNL1        0.1397
      2 C         140.8765  140.9250  159.4664 C.2     1  UNL1        0.1355
      3 N         139.8874  141.0036  158.3414 N.pl3   1  UNL1       -0.2002
      4 C         138.6300  141.8054  158.5029 C.2     1  UNL1        0.3379
      5 N         138.3617  142.5285  159.7894 N.2     1  UNL1       -0.0585
      6 C         139.3508  142.4499  160.9143 C.3     1  UNL1        0.2691
      7 H         140.0636  140.5290  157.4971 H       1  UNL1        0.2983
      8 C         139.0825  143.1731  162.2008 C.ar    1  UNL1        0.0371
      9 C         139.7394  144.4946  162.4695 C.ar    1  UNL1        0.0030
     10 C         139.4711  145.2178  163.7559 C.ar    1  UNL1        0.0295
     11 C         138.5458  144.6196  164.7738 C.ar    1  UNL1        0.1406
     12 F         138.2775  145.3428  166.0602 F       1  UNL1       -0.2042
     13 C         137.8889  143.2981  164.5051 C.ar    1  UNL1        0.0362
     14 C         138.1572  142.5749  163.2186 C.ar    1  UNL1        0.0372
     15 BR        137.5003  141.2534  162.9500 Br      1  UNL1       -0.0491
     16 C         137.6410  141.8839  157.3780 C.ar    1  UNL1        0.1630
     17 C         137.5908  143.1043  156.5072 C.ar    1  UNL1        0.0267
     18 C         136.6017  143.1829  155.3823 C.ar    1  UNL1        0.0034
     19 C         135.6628  142.0411  155.1281 C.ar    1  UNL1        0.0207
     20 C         135.7129  140.8208  155.9988 C.ar    1  UNL1        0.0991
     21 N         136.7020  140.7422  157.1238 N.ar    1  UNL1       -0.2364
     22 C         141.5973  141.5696  161.8778 C.2     1  UNL1        0.3447
     23 O         142.6597  142.6193  162.0171 O.2     1  UNL1       -0.2450
     24 O         141.5240  140.4413  162.8635 O.3     1  UNL1       -0.4455
     25 C         141.4074  141.9880  164.9478 C.3     1  UNL1        0.0513
     26 C         141.0563  140.6992  164.2652 C.3     1  UNL1        0.2089
     27 C         142.1340  140.1232  159.3048 C.3     1  UNL1        0.1405
     28 N         143.2633  140.6583  158.4752 N.3     1  UNL1       -0.2617
     29 C         143.6861  139.9372  157.2297 C.3     1  UNL1        0.1050
     30 C         144.8155  140.4723  156.4000 C.3     1  UNL1        0.1595
     31 O         145.5219  141.7285  156.8158 O.3     1  UNL1       -0.3508
     32 C         145.0990  142.4496  158.0613 C.3     1  UNL1        0.1595
     33 C         143.9697  141.9145  158.8909 C.3     1  UNL1        0.1050
@<TRIPOS>BOND
     1    25    26    1
     2    26    24    1
     3    24    22    1
     4    22    23    2
     5    22     1    1
     6     1     2    2
     7     2    27    1
     8    27    28    1
     9    28    29    1
    10    29    30    1
    11    30    31    1
    12    31    32    1
    13    32    33    1
    14     2     3    1
    15     3     4    1
    16     4    16    1
    17    16    17   ar
    18    17    18   ar
    19    18    19   ar
    20    19    20   ar
    21    20    21   ar
    22     4     5    2
    23     5     6    1
    24     6     8    1
    25     8     9   ar
    26     9    10   ar
    27    10    11   ar
    28    11    12    1
    29    11    13   ar
    30    13    14   ar
    31    14    15    1
    32     6     1    1
    33    14     8   ar
    34    33    28    1
    35    21    16   ar
    36     3     7    1
@<TRIPOS>MOLECULE
*****
 33 36 0 0 0
SMALL
GASTEIGER

@<TRIPOS>ATOM
      1 C         140.2841  140.6554  162.0392 C.2     1  UNL1        0.1397
      2 C         139.4637  141.0280  160.8400 C.2     1  UNL1        0.1355
      3 N         139.5887  140.2381  159.5710 N.pl3   1  UNL1       -0.2002
      4 C         140.5340  139.0756  159.5011 C.2     1  UNL1        0.3379
      5 N         141.3544  138.7030  160.7003 N.2     1  UNL1       -0.0585
      6 C         141.2295  139.4929  161.9693 C.3     1  UNL1        0.2691
      7 H         139.0502  140.4827  158.7839 H       1  UNL1        0.2983
      8 C         142.0499  139.1203  163.1685 C.ar    1  UNL1        0.0371
      9 C         141.4639  138.2434  164.2351 C.ar    1  UNL1        0.0030
     10 C         142.2843  137.8708  165.4343 C.ar    1  UNL1        0.0295
     11 C         143.6908  138.3750  165.5669 C.ar    1  UNL1        0.1406
     12 F         144.5112  138.0023  166.7661 F       1  UNL1       -0.2042
     13 C         144.2769  139.2518  164.5003 C.ar    1  UNL1        0.0362
     14 C         143.4564  139.6245  163.3011 C.ar    1  UNL1        0.0372
     15 BR        144.0424  140.5013  162.2345 Br      1  UNL1       -0.0491
     16 C         140.6589  138.2857  158.2321 C.ar    1  UNL1        0.1630
     17 C         141.9910  137.7317  157.8215 C.ar    1  UNL1        0.0267
     18 C         142.1159  136.9418  156.5525 C.ar    1  UNL1        0.0034
     19 C         140.9087  136.7059  155.6940 C.ar    1  UNL1        0.0207
     20 C         139.5766  137.2598  156.1046 C.ar    1  UNL1        0.0991
     21 N         139.4517  138.0498  157.3736 N.ar    1  UNL1       -0.2364
     22 C         140.1592  141.4453  163.3082 C.2     1  UNL1        0.3447
     23 O         141.2567  142.3811  163.7203 O.2     1  UNL1       -0.2450
     24 O         138.9369  141.2995  164.1652 O.3     1  UNL1       -0.4455
     25 C         138.2410  139.3658  165.7548 C.3     1  UNL1        0.0513
     26 C         138.3244  139.9462  164.3741 C.3     1  UNL1        0.2089
     27 C         138.5184  142.1906  160.9098 C.3     1  UNL1        0.1405
     28 N         139.0537  143.5860  161.0362 N.3     1  UNL1       -0.2617
     29 C         139.9203  144.1578  159.9536 C.3     1  UNL1        0.1050
     30 C         140.4557  145.5534  160.0800 C.3     1  UNL1        0.1595
     31 O         140.1244  146.3771  161.2890 O.3     1  UNL1       -0.3508
     32 C         139.2578  145.8053  162.3717 C.3     1  UNL1        0.1595
     33 C         138.7225  144.4098  162.2453 C.3     1  UNL1        0.1050
@<TRIPOS>BOND
     1    25    26    1
     2    26    24    1
     3    24    22    1
     4    22    23    2
     5    22     1    1
     6     1     2    2
     7     2    27    1
     8    27    28    1
     9    28    29    1
    10    29    30    1
    11    30    31    1
    12    31    32    1
    13    32    33    1
    14     2     3    1
    15     3     4    1
    16     4    16    1
    17    16    17   ar
    18    17    18   ar
    19    18    19   ar
    20    19    20   ar
    21    20    21   ar
    22     4     5    2
    23     5     6    1
    24     6     8    1
    25     8     9   ar
    26     9    10   ar
    27    10    11   ar
    28    11    12    1
    29    11    13   ar
    30    13    14   ar
    31    14    15    1
    32     6     1    1
    33    14     8   ar
    34    33    28    1
    35    21    16   ar
    36     3     7    1
@<TRIPOS>MOLECULE
*****
 33 36 0 0 0
SMALL
GASTEIGER

@<TRIPOS>ATOM
      1 C         142.3190  141.1709  161.6825 C.2     1  UNL1        0.1397
      2 C         141.8982  141.6590  160.3281 C.2     1  UNL1        0.1355
      3 N         141.7191  140.6844  159.2019 N.pl3   1  UNL1       -0.2002
      4 C         141.9608  139.2218  159.4303 C.2     1  UNL1        0.3379
      5 N         142.3816  138.7337  160.7848 N.2     1  UNL1       -0.0585
      6 C         142.5607  139.7083  161.9109 C.3     1  UNL1        0.2691
      7 H         141.4429  141.0047  158.3129 H       1  UNL1        0.2983
      8 C         142.9815  139.2201  163.2654 C.ar    1  UNL1        0.0371
      9 C         144.4208  139.3050  163.6794 C.ar    1  UNL1        0.0030
     10 C         144.8416  138.8169  165.0339 C.ar    1  UNL1        0.0295
     11 C         143.8232  138.2439  165.9744 C.ar    1  UNL1        0.1406
     12 F         144.2441  137.7558  167.3289 F       1  UNL1       -0.2042
     13 C         142.3840  138.1590  165.5605 C.ar    1  UNL1        0.0362
     14 C         141.9631  138.6472  164.2059 C.ar    1  UNL1        0.0372
     15 BR        140.5239  138.5623  163.7920 Br      1  UNL1       -0.0491
     16 C         141.7818  138.2472  158.3042 C.ar    1  UNL1        0.1630
     17 C         140.4862  138.2028  157.5496 C.ar    1  UNL1        0.0267
     18 C         140.3071  137.2282  156.4235 C.ar    1  UNL1        0.0034
     19 C         141.4236  136.2980  156.0520 C.ar    1  UNL1        0.0207
     20 C         142.7192  136.3424  156.8065 C.ar    1  UNL1        0.0991
     21 N         142.8983  137.3170  157.9327 N.ar    1  UNL1       -0.2364
     22 C         142.4980  142.1455  162.8087 C.2     1  UNL1        0.3447
     23 O         141.3583  142.4324  163.7406 O.2     1  UNL1       -0.2450
     24 O         143.8169  142.8332  163.0028 O.3     1  UNL1       -0.4455
     25 C         143.4963  145.2635  163.8634 C.3     1  UNL1        0.0513
     26 C         143.9299  144.3132  162.7869 C.3     1  UNL1        0.2089
     27 C         141.6564  143.1217  160.0996 C.3     1  UNL1        0.1405
     28 N         140.5435  143.8199  160.8234 N.3     1  UNL1       -0.2617
     29 C         140.6947  145.2577  161.2232 C.3     1  UNL1        0.1050
     30 C         139.5817  145.9559  161.9470 C.3     1  UNL1        0.1595
     31 O         138.3176  145.2163  162.2709 O.3     1  UNL1       -0.3508
     32 C         138.1664  143.7785  161.8711 C.3     1  UNL1        0.1595
     33 C         139.2793  143.0803  161.1473 C.3     1  UNL1        0.1050
@<TRIPOS>BOND
     1    25    26    1
     2    26    24    1
     3    24    22    1
     4    22    23    2
     5    22     1    1
     6     1     2    2
     7     2    27    1
     8    27    28    1
     9    28    29    1
    10    29    30    1
    11    30    31    1
    12    31    32    1
    13    32    33    1
    14     2     3    1
    15     3     4    1
    16     4    16    1
    17    16    17   ar
    18    17    18   ar
    19    18    19   ar
    20    19    20   ar
    21    20    21   ar
    22     4     5    2
    23     5     6    1
    24     6     8    1
    25     8     9   ar
    26     9    10   ar
    27    10    11   ar
    28    11    12    1
    29    11    13   ar
    30    13    14   ar
    31    14    15    1
    32     6     1    1
    33    14     8   ar
    34    33    28    1
    35    21    16   ar
    36     3     7    1
@<TRIPOS>MOLECULE
*****
 33 36 0 0 0
SMALL
GASTEIGER

@<TRIPOS>ATOM
      1 C         143.0246  140.4635  160.0860 C.2     1  UNL1        0.1397
      2 C         143.2774  139.4415  159.0175 C.2     1  UNL1        0.1355
      3 N         144.1405  139.7853  157.8399 N.pl3   1  UNL1       -0.2002
      4 C         144.7507  141.1512  157.7307 C.2     1  UNL1        0.3379
      5 N         144.4979  142.1732  158.7991 N.2     1  UNL1       -0.0585
      6 C         143.6348  141.8293  159.9767 C.3     1  UNL1        0.2691
      7 H         144.3064  139.1145  157.1387 H       1  UNL1        0.2983
      8 C         143.3819  142.8514  161.0452 C.ar    1  UNL1        0.0371
      9 C         144.3189  142.9651  162.2110 C.ar    1  UNL1        0.0030
     10 C         144.0661  143.9871  163.2794 C.ar    1  UNL1        0.0295
     11 C         142.8763  144.8955  163.1820 C.ar    1  UNL1        0.1406
     12 F         142.6235  145.9175  164.2504 F       1  UNL1       -0.2042
     13 C         141.9394  144.7818  162.0161 C.ar    1  UNL1        0.0362
     14 C         142.1922  143.7597  160.9477 C.ar    1  UNL1        0.0372
     15 BR        141.2553  143.6460  159.7818 Br      1  UNL1       -0.0491
     16 C         145.6138  141.4951  156.5530 C.ar    1  UNL1        0.1630
     17 C         146.7866  142.4141  156.7256 C.ar    1  UNL1        0.0267
     18 C         147.6497  142.7580  155.5480 C.ar    1  UNL1        0.0034
     19 C         147.3400  142.1828  154.1977 C.ar    1  UNL1        0.0207
     20 C         146.1672  141.2637  154.0252 C.ar    1  UNL1        0.0991
     21 N         145.3041  140.9199  155.2028 N.ar    1  UNL1       -0.2364
     22 C         142.1615  140.1196  161.2636 C.2     1  UNL1        0.3447
     23 O         140.7085  140.4923  161.2629 O.2     1  UNL1       -0.2450
     24 O         142.7513  139.4030  162.4419 O.3     1  UNL1       -0.4455
     25 C         144.8356  139.6976  163.9647 C.3     1  UNL1        0.0513
     26 C         144.2391  139.3654  162.6291 C.3     1  UNL1        0.2089
     27 C         142.6672  138.0755  159.1267 C.3     1  UNL1        0.1405
     28 N         142.0757  137.4192  157.9146 N.3     1  UNL1       -0.2617
     29 C         142.8133  136.3080  157.2282 C.3     1  UNL1        0.1050
     30 C         142.2217  135.6517  156.0160 C.3     1  UNL1        0.1595
     31 O         140.8926  136.1067  155.4902 O.3     1  UNL1       -0.3508
     32 C         140.1551  137.2179  156.1765 C.3     1  UNL1        0.1595
     33 C         140.7465  137.8742  157.3887 C.3     1  UNL1        0.1050
@<TRIPOS>BOND
     1    25    26    1
     2    26    24    1
     3    24    22    1
     4    22    23    2
     5    22     1    1
     6     1     2    2
     7     2    27    1
     8    27    28    1
     9    28    29    1
    10    29    30    1
    11    30    31    1
    12    31    32    1
    13    32    33    1
    14     2     3    1
    15     3     4    1
    16     4    16    1
    17    16    17   ar
    18    17    18   ar
    19    18    19   ar
    20    19    20   ar
    21    20    21   ar
    22     4     5    2
    23     5     6    1
    24     6     8    1
    25     8     9   ar
    26     9    10   ar
    27    10    11   ar
    28    11    12    1
    29    11    13   ar
    30    13    14   ar
    31    14    15    1
    32     6     1    1
    33    14     8   ar
    34    33    28    1
    35    21    16   ar
    36     3     7    1
@<TRIPOS>MOLECULE
*****
 33 36 0 0 0
SMALL
GASTEIGER

@<TRIPOS>ATOM
      1 C         139.5203  141.1236  161.0631 C.2     1  UNL1        0.1397
      2 C         139.6551  140.3662  159.7754 C.2     1  UNL1        0.1355
      3 N         139.1695  140.9745  158.4932 N.pl3   1  UNL1       -0.2002
      4 C         138.5492  142.3401  158.4986 C.2     1  UNL1        0.3379
      5 N         138.4144  143.0975  159.7862 N.2     1  UNL1       -0.0585
      6 C         138.9000  142.4892  161.0685 C.3     1  UNL1        0.2691
      7 H         139.2580  140.4773  157.6480 H       1  UNL1        0.2983
      8 C         138.7652  143.2467  162.3562 C.ar    1  UNL1        0.0371
      9 C         137.5859  143.0021  163.2503 C.ar    1  UNL1        0.0030
     10 C         137.4511  143.7595  164.5380 C.ar    1  UNL1        0.0295
     11 C         138.4956  144.7616  164.9316 C.ar    1  UNL1        0.1406
     12 F         138.3608  145.5190  166.2193 F       1  UNL1       -0.2042
     13 C         139.6749  145.0062  164.0375 C.ar    1  UNL1        0.0362
     14 C         139.8097  144.2487  162.7498 C.ar    1  UNL1        0.0372
     15 BR        140.9890  144.4934  161.8557 Br      1  UNL1       -0.0491
     16 C         138.0636  142.9484  157.2163 C.ar    1  UNL1        0.1630
     17 C         136.8715  142.3680  156.5150 C.ar    1  UNL1        0.0267
     18 C         136.3860  142.9762  155.2327 C.ar    1  UNL1        0.0034
     19 C         137.0925  144.1650  154.6518 C.ar    1  UNL1        0.0207
     20 C         138.2846  144.7455  155.3531 C.ar    1  UNL1        0.0991
     21 N         138.7702  144.1372  156.6353 N.ar    1  UNL1       -0.2364
     22 C         140.0059  140.5153  162.3454 C.2     1  UNL1        0.3447
     23 O         139.1428  139.5369  163.0854 O.2     1  UNL1       -0.2450
     24 O         141.3546  140.8854  162.8876 O.3     1  UNL1       -0.4455
     25 C         142.2384  142.3626  164.8336 C.3     1  UNL1        0.0513
     26 C         141.5312  141.1284  164.3572 C.3     1  UNL1        0.2089
     27 C         140.2754  139.0004  159.7700 C.3     1  UNL1        0.1405
     28 N         141.7323  138.8371  160.0873 N.3     1  UNL1       -0.2617
     29 C         142.7433  139.7514  159.4612 C.3     1  UNL1        0.1050
     30 C         144.2003  139.5881  159.7786 C.3     1  UNL1        0.1595
     31 O         144.6462  138.5106  160.7220 O.3     1  UNL1       -0.3508
     32 C         143.6352  137.5963  161.3481 C.3     1  UNL1        0.1595
     33 C         142.1783  137.7596  161.0308 C.3     1  UNL1        0.1050
@<TRIPOS>BOND
     1    25    26    1
     2    26    24    1
     3    24    22    1
     4    22    23    2
     5    22     1    1
     6     1     2    2
     7     2    27    1
     8    27    28    1
     9    28    29    1
    10    29    30    1
    11    30    31    1
    12    31    32    1
    13    32    33    1
    14     2     3    1
    15     3     4    1
    16     4    16    1
    17    16    17   ar
    18    17    18   ar
    19    18    19   ar
    20    19    20   ar
    21    20    21   ar
    22     4     5    2
    23     5     6    1
    24     6     8    1
    25     8     9   ar
    26     9    10   ar
    27    10    11   ar
    28    11    12    1
    29    11    13   ar
    30    13    14   ar
    31    14    15    1
    32     6     1    1
    33    14     8   ar
    34    33    28    1
    35    21    16   ar
    36     3     7    1
