@<TRIPOS>MOLECULE
*****
 42 47 0 0 0
SMALL
GASTEIGER

@<TRIPOS>ATOM
      1 N         139.1572  142.2712  158.8326 N.am    1  UNL1       -0.2222
      2 C         139.3191  141.7691  160.2368 C.2     1  UNL1        0.3219
      3 O         138.8858  140.4274  160.7489 O.2     1  UNL1       -0.2512
      4 N         139.9904  142.8442  161.0391 N.am    1  UNL1       -0.1907
      5 C         140.2434  144.0108  160.1307 C.2     1  UNL1        0.2529
      6 O         140.8966  145.3043  160.5179 O.2     1  UNL1       -0.2724
      7 C         139.7284  143.6567  158.7670 C.3     1  UNL1        0.1391
      8 C         139.1710  143.1642  157.4644 C.3     1  UNL1        0.0449
      9 C         139.2189  144.0415  156.2487 C.3     1  UNL1        0.0746
     10 N         139.8242  145.4112  156.3355 N.3     1  UNL1       -0.2676
     11 C         140.3816  145.9036  157.6381 C.3     1  UNL1        0.0746
     12 C         140.3337  145.0264  158.8538 C.3     1  UNL1        0.0449
     13 C         136.4450  140.9193  156.2702 C.ar    1  UNL1        0.2293
     14 C         137.0687  141.6706  157.4088 C.ar    1  UNL1        0.0924
     15 C         138.5336  141.5198  157.6940 C.ar    1  UNL1        0.1453
     16 N         139.3748  140.6176  156.8405 N.ar    1  UNL1       -0.2084
     17 C         138.7513  139.8663  155.7019 C.ar    1  UNL1        0.2027
     18 N         137.2863  140.0171  155.4167 N.ar    1  UNL1       -0.1892
     19 C         134.0161  140.0118  156.4330 C.3     1  UNL1        0.2542
     20 O         134.9802  141.0700  155.9849 O.3     1  UNL1       -0.4560
     21 C         140.3462  142.7664  162.4941 C.ar    1  UNL1        0.0622
     22 C         139.6460  143.6476  163.4856 C.ar    1  UNL1        0.0154
     23 C         140.0018  143.5698  164.9407 C.ar    1  UNL1        0.0013
     24 C         141.0579  142.6108  165.4043 C.ar    1  UNL1        0.0006
     25 C         141.7583  141.7296  164.4128 C.ar    1  UNL1        0.0013
     26 C         141.4024  141.8074  162.9577 C.ar    1  UNL1        0.0154
     27 C         141.4138  142.5330  166.8594 C.ar    1  UNL1        0.0070
     28 C         142.7641  142.1978  167.4201 C.ar    1  UNL1        0.0355
     29 S         142.6667  142.2344  168.9165 S.2     1  UNL1       -0.0853
     30 C         141.2562  142.5922  169.2806 C.ar    1  UNL1        0.0434
     31 C         140.4819  142.7767  168.0092 C.ar    1  UNL1        0.0081
     32 C         140.7151  142.7395  170.6718 C.2     1  UNL1        0.0789
     33 O         141.3678  142.0145  171.8112 O.co2   1  UNL1       -0.5441
     34 O         139.5212  143.6119  170.9236 O.co2   1  UNL1       -0.5441
     35 C         139.8721  146.2885  155.1197 C.3     1  UNL1        0.1183
     36 C         139.4896  147.7352  155.2232 C.ar    1  UNL1        0.0712
     37 N         138.6798  148.2152  156.3910 N.ar    1  UNL1       -0.2471
     38 C         138.2973  149.6620  156.4944 C.ar    1  UNL1        0.0985
     39 C         138.7247  150.6287  155.4301 C.ar    1  UNL1        0.0203
     40 C         139.5346  150.1487  154.2623 C.ar    1  UNL1       -0.0015
     41 C         139.9170  148.7020  154.1589 C.ar    1  UNL1       -0.0069
     42 C         140.7269  148.2220  152.9911 C.3     1  UNL1        0.0323
@<TRIPOS>UNITY_ATOM_ATTR
33 1
charge -1
@<TRIPOS>BOND
     1    19    20    1
     2    20    13    1
     3    13    14   ar
     4    14    15   ar
     5    15     1    1
     6     1     2   am
     7     2     3    2
     8     2     4   am
     9     4    21    1
    10    21    22   ar
    11    22    23   ar
    12    23    24   ar
    13    24    27    1
    14    27    28   ar
    15    28    29   ar
    16    29    30   ar
    17    30    32    1
    18    32    33   ar
    19    32    34   ar
    20    30    31   ar
    21    24    25   ar
    22    25    26   ar
    23     4     5   am
    24     5     6    2
    25     5     7    1
    26     7     8    1
    27     8     9    1
    28     9    10    1
    29    10    35    1
    30    35    36    1
    31    36    37   ar
    32    37    38   ar
    33    38    39   ar
    34    39    40   ar
    35    40    41   ar
    36    41    42    1
    37    10    11    1
    38    11    12    1
    39    15    16   ar
    40    16    17   ar
    41    17    18   ar
    42    18    13   ar
    43     7     1    1
    44    41    36   ar
    45    26    21   ar
    46    12     7    1
    47    31    27   ar
@<TRIPOS>MOLECULE
*****
 42 47 0 0 0
SMALL
GASTEIGER

@<TRIPOS>ATOM
      1 N         142.1177  138.3188  158.8216 N.am    1  UNL1       -0.2222
      2 C         142.5414  138.2872  160.2603 C.2     1  UNL1        0.3219
      3 O         143.8328  137.7354  160.7872 O.2     1  UNL1       -0.2512
      4 N         141.4468  138.9044  161.0795 N.am    1  UNL1       -0.1907
      5 C         140.3467  139.3173  160.1472 C.2     1  UNL1        0.2529
      6 O         139.0581  139.9765  160.5410 O.2     1  UNL1       -0.2724
      7 C         140.7613  138.9554  158.7517 C.3     1  UNL1        0.1391
      8 C         141.3086  138.5378  157.4191 C.3     1  UNL1        0.0449
      9 C         140.5075  138.7715  156.1727 C.3     1  UNL1        0.0746
     10 N         139.1591  139.4228  156.2589 N.3     1  UNL1       -0.2676
     11 C         138.6117  139.8404  157.5915 C.3     1  UNL1        0.0746
     12 C         139.4128  139.6067  158.8380 C.3     1  UNL1        0.0449
     13 C         143.6616  135.8316  156.1421 C.ar    1  UNL1        0.2293
     14 C         142.8682  136.3463  157.3063 C.ar    1  UNL1        0.0924
     15 C         142.9111  137.8040  157.6574 C.ar    1  UNL1        0.1453
     16 N         143.7475  138.7470  156.8442 N.ar    1  UNL1       -0.2084
     17 C         144.5410  138.2324  155.6800 C.ar    1  UNL1        0.2027
     18 N         144.4980  136.7746  155.3289 N.ar    1  UNL1       -0.1892
     19 C         143.0565  133.3836  156.7673 C.3     1  UNL1        0.2542
     20 O         143.6187  134.3740  155.7909 O.3     1  UNL1       -0.4560
     21 C         141.4515  139.0781  162.5693 C.ar    1  UNL1        0.0622
     22 C         141.3816  140.4532  163.1643 C.ar    1  UNL1        0.0154
     23 C         141.3863  140.6269  164.6542 C.ar    1  UNL1        0.0013
     24 C         141.4610  139.4254  165.5492 C.ar    1  UNL1        0.0006
     25 C         141.5309  138.0502  164.9542 C.ar    1  UNL1        0.0013
     26 C         141.5261  137.8766  163.4642 C.ar    1  UNL1        0.0154
     27 C         141.4657  139.5991  167.0391 C.ar    1  UNL1        0.0070
     28 C         142.6587  139.4653  167.9385 C.ar    1  UNL1        0.0355
     29 S         142.2086  139.7206  169.3464 S.2     1  UNL1       -0.0853
     30 C         140.7375  140.0122  169.3171 C.ar    1  UNL1        0.0434
     31 C         140.2784  139.9371  167.8911 C.ar    1  UNL1        0.0081
     32 C         139.8766  140.3241  170.5052 C.2     1  UNL1        0.0789
     33 O         138.4471  139.8708  170.5353 O.co2   1  UNL1       -0.5441
     34 O         140.4452  141.0892  171.6633 O.co2   1  UNL1       -0.5441
     35 C         138.3580  139.6565  155.0124 C.3     1  UNL1        0.1183
     36 C         136.9294  140.1027  155.1117 C.ar    1  UNL1        0.0712
     37 N         135.8336  139.0867  155.2420 N.ar    1  UNL1       -0.2471
     38 C         134.4049  139.5331  155.3412 C.ar    1  UNL1        0.0985
     39 C         134.0721  140.9953  155.3102 C.ar    1  UNL1        0.0203
     40 C         135.1679  142.0113  155.1799 C.ar    1  UNL1       -0.0015
     41 C         136.5965  141.5651  155.0806 C.ar    1  UNL1       -0.0069
     42 C         137.6923  142.5811  154.9503 C.3     1  UNL1        0.0323
@<TRIPOS>UNITY_ATOM_ATTR
33 1
charge -1
@<TRIPOS>BOND
     1    19    20    1
     2    20    13    1
     3    13    14   ar
     4    14    15   ar
     5    15     1    1
     6     1     2   am
     7     2     3    2
     8     2     4   am
     9     4    21    1
    10    21    22   ar
    11    22    23   ar
    12    23    24   ar
    13    24    27    1
    14    27    28   ar
    15    28    29   ar
    16    29    30   ar
    17    30    32    1
    18    32    33   ar
    19    32    34   ar
    20    30    31   ar
    21    24    25   ar
    22    25    26   ar
    23     4     5   am
    24     5     6    2
    25     5     7    1
    26     7     8    1
    27     8     9    1
    28     9    10    1
    29    10    35    1
    30    35    36    1
    31    36    37   ar
    32    37    38   ar
    33    38    39   ar
    34    39    40   ar
    35    40    41   ar
    36    41    42    1
    37    10    11    1
    38    11    12    1
    39    15    16   ar
    40    16    17   ar
    41    17    18   ar
    42    18    13   ar
    43     7     1    1
    44    41    36   ar
    45    26    21   ar
    46    12     7    1
    47    31    27   ar
@<TRIPOS>MOLECULE
*****
 42 47 0 0 0
SMALL
GASTEIGER

@<TRIPOS>ATOM
      1 N         142.3986  139.0179  159.2919 N.am    1  UNL1       -0.2222
      2 C         142.1575  138.7507  160.7482 C.2     1  UNL1        0.3219
      3 O         141.4976  137.5328  161.3237 O.2     1  UNL1       -0.2512
      4 N         142.6923  139.9152  161.5279 N.am    1  UNL1       -0.1907
      5 C         143.2639  140.9021  160.5536 C.2     1  UNL1        0.2529
      6 O         143.9045  142.2134  160.9002 O.2     1  UNL1       -0.2724
      7 C         143.0824  140.3476  159.1716 C.3     1  UNL1        0.1391
      8 C         142.8328  139.6688  157.8576 C.3     1  UNL1        0.0449
      9 C         143.2600  140.3281  156.5798 C.3     1  UNL1        0.0746
     10 N         143.9368  141.6663  156.6161 N.3     1  UNL1       -0.2676
     11 C         144.1863  142.3451  157.9302 C.3     1  UNL1        0.0746
     12 C         143.7591  141.6858  159.2080 C.3     1  UNL1        0.0449
     13 C         140.2488  137.2350  156.4725 C.ar    1  UNL1        0.2293
     14 C         140.6254  138.1388  157.6088 C.ar    1  UNL1        0.0924
     15 C         142.0220  138.1141  158.1556 C.ar    1  UNL1        0.1453
     16 N         143.0420  137.1857  157.5659 N.ar    1  UNL1       -0.2084
     17 C         142.6654  136.2819  156.4296 C.ar    1  UNL1        0.2027
     18 N         141.2688  136.3066  155.8828 N.ar    1  UNL1       -0.1892
     19 C         138.6270  137.2367  154.4428 C.3     1  UNL1        0.2542
     20 O         138.8523  137.2596  155.9257 O.3     1  UNL1       -0.4560
     21 C         142.6611  140.0663  163.0199 C.ar    1  UNL1        0.0622
     22 C         143.5987  139.2661  163.8745 C.ar    1  UNL1        0.0154
     23 C         143.5674  139.4172  165.3666 C.ar    1  UNL1        0.0013
     24 C         142.5985  140.3685  166.0040 C.ar    1  UNL1        0.0006
     25 C         141.6608  141.1688  165.1493 C.ar    1  UNL1        0.0013
     26 C         141.6922  141.0176  163.6572 C.ar    1  UNL1        0.0154
     27 C         142.5672  140.5196  167.4960 C.ar    1  UNL1        0.0070
     28 C         142.6649  139.4067  168.4972 C.ar    1  UNL1        0.0355
     29 S         142.5908  140.0094  169.8687 S.2     1  UNL1       -0.0853
     30 C         142.4474  141.4946  169.7153 C.ar    1  UNL1        0.0434
     31 C         142.4328  141.8099  168.2489 C.ar    1  UNL1        0.0081
     32 C         142.3378  142.4898  170.8323 C.2     1  UNL1        0.0789
     33 O         141.3783  142.2491  171.9599 O.co2   1  UNL1       -0.5441
     34 O         143.1875  143.7258  170.8216 O.co2   1  UNL1       -0.5441
     35 C         144.3640  142.3256  155.3383 C.3     1  UNL1        0.1183
     36 C         145.8221  142.4465  155.0077 C.ar    1  UNL1        0.0712
     37 N         146.8128  141.5090  155.6317 N.ar    1  UNL1       -0.2471
     38 C         148.2710  141.6299  155.3011 C.ar    1  UNL1        0.0985
     39 C         148.7383  142.6884  154.3466 C.ar    1  UNL1        0.0203
     40 C         147.7476  143.6260  153.7226 C.ar    1  UNL1       -0.0015
     41 C         146.2895  143.5051  154.0531 C.ar    1  UNL1       -0.0069
     42 C         145.2987  144.4426  153.4291 C.3     1  UNL1        0.0323
@<TRIPOS>UNITY_ATOM_ATTR
33 1
charge -1
@<TRIPOS>BOND
     1    19    20    1
     2    20    13    1
     3    13    14   ar
     4    14    15   ar
     5    15     1    1
     6     1     2   am
     7     2     3    2
     8     2     4   am
     9     4    21    1
    10    21    22   ar
    11    22    23   ar
    12    23    24   ar
    13    24    27    1
    14    27    28   ar
    15    28    29   ar
    16    29    30   ar
    17    30    32    1
    18    32    33   ar
    19    32    34   ar
    20    30    31   ar
    21    24    25   ar
    22    25    26   ar
    23     4     5   am
    24     5     6    2
    25     5     7    1
    26     7     8    1
    27     8     9    1
    28     9    10    1
    29    10    35    1
    30    35    36    1
    31    36    37   ar
    32    37    38   ar
    33    38    39   ar
    34    39    40   ar
    35    40    41   ar
    36    41    42    1
    37    10    11    1
    38    11    12    1
    39    15    16   ar
    40    16    17   ar
    41    17    18   ar
    42    18    13   ar
    43     7     1    1
    44    41    36   ar
    45    26    21   ar
    46    12     7    1
    47    31    27   ar
@<TRIPOS>MOLECULE
*****
 42 47 0 0 0
SMALL
GASTEIGER

@<TRIPOS>ATOM
      1 N         141.7164  139.1115  159.3279 N.am    1  UNL1       -0.2222
      2 C         141.2205  138.8780  160.7242 C.2     1  UNL1        0.3219
      3 O         140.5416  137.6368  161.2228 O.2     1  UNL1       -0.2512
      4 N         141.5227  140.1037  161.5344 N.am    1  UNL1       -0.1907
      5 C         142.2054  141.0946  160.6389 C.2     1  UNL1        0.2529
      6 O         142.6843  142.4592  161.0370 O.2     1  UNL1       -0.2724
      7 C         142.3251  140.4814  159.2751 C.3     1  UNL1        0.1391
      8 C         142.3731  139.7418  157.9710 C.3     1  UNL1        0.0449
      9 C         142.9927  140.3855  156.7662 C.3     1  UNL1        0.0746
     10 N         143.5642  141.7688  156.8654 N.3     1  UNL1       -0.2676
     11 C         143.5162  142.5084  158.1695 C.3     1  UNL1        0.0746
     12 C         142.8966  141.8647  159.3743 C.3     1  UNL1        0.0449
     13 C         142.6028  136.1569  156.8310 C.ar    1  UNL1        0.2293
     14 C         142.6987  137.1236  157.9738 C.ar    1  UNL1        0.0924
     15 C         141.6204  138.1447  158.1850 C.ar    1  UNL1        0.1453
     16 N         140.4461  138.1990  157.2533 N.ar    1  UNL1       -0.2084
     17 C         140.3501  137.2324  156.1104 C.ar    1  UNL1        0.2027
     18 N         141.4285  136.2112  155.8992 N.ar    1  UNL1       -0.1892
     19 C         143.7630  133.9355  157.5156 C.3     1  UNL1        0.2542
     20 O         143.6810  135.1358  156.6198 O.3     1  UNL1       -0.4560
     21 C         141.1991  140.3034  162.9853 C.ar    1  UNL1        0.0622
     22 C         141.7828  139.3845  164.0173 C.ar    1  UNL1        0.0154
     23 C         141.4591  139.5842  165.4683 C.ar    1  UNL1        0.0013
     24 C         140.5519  140.7027  165.8874 C.ar    1  UNL1        0.0006
     25 C         139.9682  141.6217  164.8554 C.ar    1  UNL1        0.0013
     26 C         140.2918  141.4219  163.4044 C.ar    1  UNL1        0.0154
     27 C         140.2282  140.9024  167.3384 C.ar    1  UNL1        0.0070
     28 C         139.5650  139.9032  168.2394 C.ar    1  UNL1        0.0355
     29 S         139.4379  140.5195  169.6010 S.2     1  UNL1       -0.0853
     30 C         140.0225  141.8996  169.5415 C.ar    1  UNL1        0.0434
     31 C         140.5110  142.1362  168.1431 C.ar    1  UNL1        0.0081
     32 C         140.1044  142.8724  170.6804 C.2     1  UNL1        0.0789
     33 O         140.3160  142.3735  172.0791 O.co2   1  UNL1       -0.5441
     34 O         139.9746  144.3440  170.4207 O.co2   1  UNL1       -0.5441
     35 C         144.1839  142.4125  155.6605 C.3     1  UNL1        0.1183
     36 C         145.6460  142.2292  155.3807 C.ar    1  UNL1        0.0712
     37 N         146.6462  142.3794  156.4885 N.ar    1  UNL1       -0.2471
     38 C         148.1085  142.1960  156.2087 C.ar    1  UNL1        0.0985
     39 C         148.5705  141.8624  154.8212 C.ar    1  UNL1        0.0203
     40 C         147.5704  141.7122  153.7134 C.ar    1  UNL1       -0.0015
     41 C         146.1082  141.8956  153.9932 C.ar    1  UNL1       -0.0069
     42 C         145.1080  141.7454  152.8854 C.3     1  UNL1        0.0323
@<TRIPOS>UNITY_ATOM_ATTR
33 1
charge -1
@<TRIPOS>BOND
     1    19    20    1
     2    20    13    1
     3    13    14   ar
     4    14    15   ar
     5    15     1    1
     6     1     2   am
     7     2     3    2
     8     2     4   am
     9     4    21    1
    10    21    22   ar
    11    22    23   ar
    12    23    24   ar
    13    24    27    1
    14    27    28   ar
    15    28    29   ar
    16    29    30   ar
    17    30    32    1
    18    32    33   ar
    19    32    34   ar
    20    30    31   ar
    21    24    25   ar
    22    25    26   ar
    23     4     5   am
    24     5     6    2
    25     5     7    1
    26     7     8    1
    27     8     9    1
    28     9    10    1
    29    10    35    1
    30    35    36    1
    31    36    37   ar
    32    37    38   ar
    33    38    39   ar
    34    39    40   ar
    35    40    41   ar
    36    41    42    1
    37    10    11    1
    38    11    12    1
    39    15    16   ar
    40    16    17   ar
    41    17    18   ar
    42    18    13   ar
    43     7     1    1
    44    41    36   ar
    45    26    21   ar
    46    12     7    1
    47    31    27   ar
@<TRIPOS>MOLECULE
*****
 42 47 0 0 0
SMALL
GASTEIGER

@<TRIPOS>ATOM
      1 N         138.7137  141.2129  158.8931 N.am    1  UNL1       -0.2222
      2 C         138.5430  141.6447  160.3195 C.2     1  UNL1        0.3219
      3 O         137.7280  142.8101  160.7965 O.2     1  UNL1       -0.2512
      4 N         139.3306  140.7063  161.1852 N.am    1  UNL1       -0.1907
      5 C         139.9879  139.6947  160.2939 C.2     1  UNL1        0.2529
      6 O         140.8714  138.5678  160.7406 O.2     1  UNL1       -0.2724
      7 C         139.6067  140.0077  158.8773 C.3     1  UNL1        0.1391
      8 C         139.1423  140.4409  157.5184 C.3     1  UNL1        0.0449
      9 C         139.5776  139.6820  156.2999 C.3     1  UNL1        0.0746
     10 N         140.4773  138.4900  156.4404 N.3     1  UNL1       -0.2676
     11 C         140.9417  138.0569  157.7993 C.3     1  UNL1        0.0746
     12 C         140.5064  138.8157  159.0178 C.3     1  UNL1        0.0449
     13 C         136.1930  142.0111  155.9337 C.ar    1  UNL1        0.2293
     14 C         136.8074  141.3532  157.1335 C.ar    1  UNL1        0.0924
     15 C         138.0992  141.8707  157.6933 C.ar    1  UNL1        0.1453
     16 N         138.7766  143.0461  157.0532 N.ar    1  UNL1       -0.2084
     17 C         138.1622  143.7040  155.8534 C.ar    1  UNL1        0.2027
     18 N         136.8703  143.1865  155.2936 N.ar    1  UNL1       -0.1892
     19 C         134.1671  140.3910  156.0776 C.3     1  UNL1        0.2542
     20 O         134.9012  141.4937  155.3738 O.3     1  UNL1       -0.4560
     21 C         139.4413  140.7687  162.6798 C.ar    1  UNL1        0.0622
     22 C         138.3216  140.2572  163.5368 C.ar    1  UNL1        0.0154
     23 C         138.4323  140.3196  165.0314 C.ar    1  UNL1        0.0013
     24 C         139.6628  140.8935  165.6690 C.ar    1  UNL1        0.0006
     25 C         140.7827  141.4050  164.8120 C.ar    1  UNL1        0.0013
     26 C         140.6718  141.3426  163.3174 C.ar    1  UNL1        0.0154
     27 C         139.7736  140.9559  167.1636 C.ar    1  UNL1        0.0070
     28 C         139.3046  139.9061  168.1271 C.ar    1  UNL1        0.0355
     29 S         139.6139  140.3804  169.5161 S.2     1  UNL1       -0.0853
     30 C         140.2740  141.7233  169.4111 C.ar    1  UNL1        0.0434
     31 C         140.3727  142.0789  167.9572 C.ar    1  UNL1        0.0081
     32 C         140.7516  142.5631  170.5585 C.2     1  UNL1        0.0789
     33 O         140.4726  142.1346  171.9687 O.co2   1  UNL1       -0.5441
     34 O         141.5082  143.8313  170.2959 O.co2   1  UNL1       -0.5441
     35 C         140.9126  137.7312  155.2219 C.3     1  UNL1        0.1183
     36 C         141.7226  136.4773  155.3688 C.ar    1  UNL1        0.0712
     37 N         141.0378  135.1438  155.4211 N.ar    1  UNL1       -0.2471
     38 C         141.8479  133.8899  155.5681 C.ar    1  UNL1        0.0985
     39 C         143.3427  133.9695  155.6627 C.ar    1  UNL1        0.0203
     40 C         144.0276  135.3031  155.6105 C.ar    1  UNL1       -0.0015
     41 C         143.2175  136.5569  155.4635 C.ar    1  UNL1       -0.0069
     42 C         143.9024  137.8904  155.4112 C.3     1  UNL1        0.0323
@<TRIPOS>UNITY_ATOM_ATTR
33 1
charge -1
@<TRIPOS>BOND
     1    19    20    1
     2    20    13    1
     3    13    14   ar
     4    14    15   ar
     5    15     1    1
     6     1     2   am
     7     2     3    2
     8     2     4   am
     9     4    21    1
    10    21    22   ar
    11    22    23   ar
    12    23    24   ar
    13    24    27    1
    14    27    28   ar
    15    28    29   ar
    16    29    30   ar
    17    30    32    1
    18    32    33   ar
    19    32    34   ar
    20    30    31   ar
    21    24    25   ar
    22    25    26   ar
    23     4     5   am
    24     5     6    2
    25     5     7    1
    26     7     8    1
    27     8     9    1
    28     9    10    1
    29    10    35    1
    30    35    36    1
    31    36    37   ar
    32    37    38   ar
    33    38    39   ar
    34    39    40   ar
    35    40    41   ar
    36    41    42    1
    37    10    11    1
    38    11    12    1
    39    15    16   ar
    40    16    17   ar
    41    17    18   ar
    42    18    13   ar
    43     7     1    1
    44    41    36   ar
    45    26    21   ar
    46    12     7    1
    47    31    27   ar
@<TRIPOS>MOLECULE
*****
 42 47 0 0 0
SMALL
GASTEIGER

@<TRIPOS>ATOM
      1 N         141.6361  141.1315  162.0278 N.am    1  UNL1       -0.2222
      2 C         141.5028  140.7962  160.5717 C.2     1  UNL1        0.3219
      3 O         141.3779  141.7817  159.4478 O.2     1  UNL1       -0.2512
      4 N         141.5164  139.3023  160.4370 N.am    1  UNL1       -0.1907
      5 C         141.6581  138.7143  161.8096 C.2     1  UNL1        0.2529
      6 O         141.7157  137.2526  162.1411 O.2     1  UNL1       -0.2724
      7 C         141.7320  139.8449  162.7928 C.3     1  UNL1        0.1391
      8 C         141.7925  141.0722  163.6531 C.3     1  UNL1        0.0449
      9 C         141.9371  140.9393  165.1401 C.3     1  UNL1        0.0746
     10 N         142.0211  139.5792  165.7670 N.3     1  UNL1       -0.2676
     11 C         141.9606  138.3519  164.9067 C.3     1  UNL1        0.0746
     12 C         141.8161  138.4847  163.4197 C.3     1  UNL1        0.0449
     13 C         140.4261  144.5443  163.6521 C.ar    1  UNL1        0.2293
     14 C         140.3944  143.1646  163.0644 C.ar    1  UNL1        0.0924
     15 C         141.6678  142.5112  162.6154 C.ar    1  UNL1        0.1453
     16 N         142.9729  143.2375  162.7542 N.ar    1  UNL1       -0.2084
     17 C         143.0047  144.6172  163.3418 C.ar    1  UNL1        0.2027
     18 N         141.7312  145.2706  163.7908 N.ar    1  UNL1       -0.1892
     19 C         138.5676  144.8588  165.4400 C.3     1  UNL1        0.2542
     20 O         139.1528  145.1978  164.1011 O.3     1  UNL1       -0.4560
     21 C         141.4075  138.5317  159.1547 C.ar    1  UNL1        0.0622
     22 C         142.6187  137.8609  158.5777 C.ar    1  UNL1        0.0154
     23 C         142.5097  137.0903  157.2954 C.ar    1  UNL1        0.0013
     24 C         141.1896  136.9904  156.5901 C.ar    1  UNL1        0.0006
     25 C         139.9784  137.6613  157.1672 C.ar    1  UNL1        0.0013
     26 C         140.0874  138.4319  158.4495 C.ar    1  UNL1        0.0154
     27 C         141.0807  136.2198  155.3078 C.ar    1  UNL1        0.0070
     28 C         140.5647  136.7488  154.0024 C.ar    1  UNL1        0.0355
     29 S         140.6337  135.6409  152.9936 S.2     1  UNL1       -0.0853
     30 C         141.1923  134.4272  153.6755 C.ar    1  UNL1        0.0434
     31 C         141.4685  134.7850  155.1058 C.ar    1  UNL1        0.0081
     32 C         141.4325  133.0904  153.0390 C.2     1  UNL1        0.0789
     33 O         140.3961  132.4939  152.1333 O.co2   1  UNL1       -0.5441
     34 O         142.7090  132.3500  153.3080 O.co2   1  UNL1       -0.5441
     35 C         142.1656  139.4463  167.2541 C.3     1  UNL1        0.1183
     36 C         141.8501  140.6109  168.1453 C.ar    1  UNL1        0.0712
     37 N         142.9481  141.5254  168.6014 N.ar    1  UNL1       -0.2471
     38 C         142.6324  142.6900  169.4926 C.ar    1  UNL1        0.0985
     39 C         141.2189  142.9400  169.9277 C.ar    1  UNL1        0.0203
     40 C         140.1209  142.0254  169.4716 C.ar    1  UNL1       -0.0015
     41 C         140.4365  140.8609  168.5804 C.ar    1  UNL1       -0.0069
     42 C         139.3385  139.9463  168.1243 C.3     1  UNL1        0.0323
@<TRIPOS>UNITY_ATOM_ATTR
33 1
charge -1
@<TRIPOS>BOND
     1    19    20    1
     2    20    13    1
     3    13    14   ar
     4    14    15   ar
     5    15     1    1
     6     1     2   am
     7     2     3    2
     8     2     4   am
     9     4    21    1
    10    21    22   ar
    11    22    23   ar
    12    23    24   ar
    13    24    27    1
    14    27    28   ar
    15    28    29   ar
    16    29    30   ar
    17    30    32    1
    18    32    33   ar
    19    32    34   ar
    20    30    31   ar
    21    24    25   ar
    22    25    26   ar
    23     4     5   am
    24     5     6    2
    25     5     7    1
    26     7     8    1
    27     8     9    1
    28     9    10    1
    29    10    35    1
    30    35    36    1
    31    36    37   ar
    32    37    38   ar
    33    38    39   ar
    34    39    40   ar
    35    40    41   ar
    36    41    42    1
    37    10    11    1
    38    11    12    1
    39    15    16   ar
    40    16    17   ar
    41    17    18   ar
    42    18    13   ar
    43     7     1    1
    44    41    36   ar
    45    26    21   ar
    46    12     7    1
    47    31    27   ar
@<TRIPOS>MOLECULE
*****
 42 47 0 0 0
SMALL
GASTEIGER

@<TRIPOS>ATOM
      1 N         138.7047  141.0330  158.9231 N.am    1  UNL1       -0.2222
      2 C         138.4838  141.4407  160.3498 C.2     1  UNL1        0.3219
      3 O         137.5120  142.4774  160.8301 O.2     1  UNL1       -0.2512
      4 N         139.4053  140.6294  161.2116 N.am    1  UNL1       -0.1907
      5 C         140.1957  139.7204  160.3177 C.2     1  UNL1        0.2529
      6 O         141.2363  138.7350  160.7603 O.2     1  UNL1       -0.2724
      7 C         139.7627  139.9699  158.9033 C.3     1  UNL1        0.1391
      8 C         139.2305  140.3264  157.5470 C.3     1  UNL1        0.0449
      9 C         139.7622  139.6342  156.3271 C.3     1  UNL1        0.0746
     10 N         140.8261  138.5856  156.4635 N.3     1  UNL1       -0.2676
     11 C         141.3582  138.2291  157.8198 C.3     1  UNL1        0.0746
     12 C         140.8266  138.9213  159.0397 C.3     1  UNL1        0.0449
     13 C         137.7338  143.4432  155.9235 C.ar    1  UNL1        0.2293
     14 C         138.4459  142.8856  157.1201 C.ar    1  UNL1        0.0924
     15 C         137.9926  141.5907  157.7265 C.ar    1  UNL1        0.1453
     16 N         136.8272  140.8534  157.1362 N.ar    1  UNL1       -0.2084
     17 C         136.1151  141.4110  155.9397 C.ar    1  UNL1        0.2027
     18 N         136.5684  142.7060  155.3332 N.ar    1  UNL1       -0.1892
     19 C         139.4038  145.4322  155.8534 C.3     1  UNL1        0.2542
     20 O         138.1870  144.7381  155.3170 O.3     1  UNL1       -0.4560
     21 C         139.5168  140.7125  162.7051 C.ar    1  UNL1        0.0622
     22 C         140.6069  141.5306  163.3314 C.ar    1  UNL1        0.0154
     23 C         140.7184  141.6137  164.8250 C.ar    1  UNL1        0.0013
     24 C         139.7398  140.8787  165.6922 C.ar    1  UNL1        0.0006
     25 C         138.6496  140.0606  165.0659 C.ar    1  UNL1        0.0013
     26 C         138.5382  139.9775  163.5723 C.ar    1  UNL1        0.0154
     27 C         139.8513  140.9618  167.1858 C.ar    1  UNL1        0.0070
     28 C         139.4673  139.8875  168.1597 C.ar    1  UNL1        0.0355
     29 S         139.7450  140.3955  169.5434 S.2     1  UNL1       -0.0853
     30 C         140.3006  141.7838  169.4247 C.ar    1  UNL1        0.0434
     31 C         140.3663  142.1338  167.9676 C.ar    1  UNL1        0.0081
     32 C         140.7174  142.6670  170.5632 C.2     1  UNL1        0.0789
     33 O         141.1423  144.0811  170.2988 O.co2   1  UNL1       -0.5441
     34 O         140.7092  142.1363  171.9661 O.co2   1  UNL1       -0.5441
     35 C         141.3577  137.8935  155.2435 C.3     1  UNL1        0.1183
     36 C         141.9066  136.5016  155.3502 C.ar    1  UNL1        0.0712
     37 N         140.9756  135.3256  155.3421 N.ar    1  UNL1       -0.2471
     38 C         141.5245  133.9336  155.4488 C.ar    1  UNL1        0.0985
     39 C         143.0044  133.7178  155.5636 C.ar    1  UNL1        0.0203
     40 C         143.9355  134.8939  155.5717 C.ar    1  UNL1       -0.0015
     41 C         143.3866  136.2857  155.4650 C.ar    1  UNL1       -0.0069
     42 C         144.3176  137.4618  155.4732 C.3     1  UNL1        0.0323
@<TRIPOS>UNITY_ATOM_ATTR
33 1
charge -1
@<TRIPOS>BOND
     1    19    20    1
     2    20    13    1
     3    13    14   ar
     4    14    15   ar
     5    15     1    1
     6     1     2   am
     7     2     3    2
     8     2     4   am
     9     4    21    1
    10    21    22   ar
    11    22    23   ar
    12    23    24   ar
    13    24    27    1
    14    27    28   ar
    15    28    29   ar
    16    29    30   ar
    17    30    32    1
    18    32    33   ar
    19    32    34   ar
    20    30    31   ar
    21    24    25   ar
    22    25    26   ar
    23     4     5   am
    24     5     6    2
    25     5     7    1
    26     7     8    1
    27     8     9    1
    28     9    10    1
    29    10    35    1
    30    35    36    1
    31    36    37   ar
    32    37    38   ar
    33    38    39   ar
    34    39    40   ar
    35    40    41   ar
    36    41    42    1
    37    10    11    1
    38    11    12    1
    39    15    16   ar
    40    16    17   ar
    41    17    18   ar
    42    18    13   ar
    43     7     1    1
    44    41    36   ar
    45    26    21   ar
    46    12     7    1
    47    31    27   ar
@<TRIPOS>MOLECULE
*****
 42 47 0 0 0
SMALL
GASTEIGER

@<TRIPOS>ATOM
      1 N         141.8360  141.8879  160.4237 N.am    1  UNL1       -0.2222
      2 C         142.6924  142.4538  159.3297 C.2     1  UNL1        0.3219
      3 O         142.4657  143.7530  158.6153 O.2     1  UNL1       -0.2512
      4 N         143.8152  141.4920  159.0756 N.am    1  UNL1       -0.1907
      5 C         143.6528  140.3320  160.0125 C.2     1  UNL1        0.2529
      6 O         144.5551  139.1370  160.1009 O.2     1  UNL1       -0.2724
      7 C         142.4296  140.5766  160.8457 C.3     1  UNL1        0.1391
      8 C         141.1895  140.9558  161.5996 C.3     1  UNL1        0.0449
      9 C         140.6540  140.0484  162.6672 C.3     1  UNL1        0.0746
     10 N         141.3586  138.7619  162.9810 N.3     1  UNL1       -0.2676
     11 C         142.5987  138.3828  162.2272 C.3     1  UNL1        0.0746
     12 C         143.1342  139.2901  161.1595 C.3     1  UNL1        0.0449
     13 C         139.4828  144.1192  162.7114 C.ar    1  UNL1        0.2293
     14 C         140.7161  143.4850  162.1398 C.ar    1  UNL1        0.0924
     15 C         140.6027  142.5222  160.9952 C.ar    1  UNL1        0.1453
     16 N         139.2560  142.1936  160.4222 N.ar    1  UNL1       -0.2084
     17 C         138.0227  142.8277  160.9937 C.ar    1  UNL1        0.2027
     18 N         138.1361  143.7906  162.1384 N.ar    1  UNL1       -0.1892
     19 C         138.8062  144.8522  165.1102 C.3     1  UNL1        0.2542
     20 O         139.5961  145.0820  163.8560 O.3     1  UNL1       -0.4560
     21 C         144.9083  141.6608  158.0626 C.ar    1  UNL1        0.0622
     22 C         145.9683  142.7019  158.2693 C.ar    1  UNL1        0.0154
     23 C         147.0615  142.8706  157.2562 C.ar    1  UNL1        0.0013
     24 C         147.0948  141.9984  156.0363 C.ar    1  UNL1        0.0006
     25 C         146.0348  140.9573  155.8295 C.ar    1  UNL1        0.0013
     26 C         144.9416  140.7886  156.8427 C.ar    1  UNL1        0.0154
     27 C         148.1880  142.1672  155.0232 C.ar    1  UNL1        0.0070
     28 C         148.0462  142.7988  153.6700 C.ar    1  UNL1        0.0355
     29 S         149.3855  142.7560  152.9959 S.2     1  UNL1       -0.0853
     30 C         150.3550  142.0979  153.9324 C.ar    1  UNL1        0.0434
     31 C         149.6149  141.7340  155.1853 C.ar    1  UNL1        0.0081
     32 C         151.8092  141.8477  153.6632 C.2     1  UNL1        0.0789
     33 O         152.8538  142.5078  154.5136 O.co2   1  UNL1       -0.5441
     34 O         152.2190  140.9373  152.5438 O.co2   1  UNL1       -0.5441
     35 C         140.8231  137.8546  164.0487 C.3     1  UNL1        0.1183
     36 C         140.1254  138.4330  165.2440 C.ar    1  UNL1        0.0712
     37 N         138.6576  138.1963  165.4430 N.ar    1  UNL1       -0.2471
     38 C         137.9599  138.7747  166.6383 C.ar    1  UNL1        0.0985
     39 C         138.7300  139.5898  167.6346 C.ar    1  UNL1        0.0203
     40 C         140.1978  139.8265  167.4355 C.ar    1  UNL1       -0.0015
     41 C         140.8955  139.2481  166.2403 C.ar    1  UNL1       -0.0069
     42 C         142.3633  139.4848  166.0412 C.3     1  UNL1        0.0323
@<TRIPOS>UNITY_ATOM_ATTR
33 1
charge -1
@<TRIPOS>BOND
     1    19    20    1
     2    20    13    1
     3    13    14   ar
     4    14    15   ar
     5    15     1    1
     6     1     2   am
     7     2     3    2
     8     2     4   am
     9     4    21    1
    10    21    22   ar
    11    22    23   ar
    12    23    24   ar
    13    24    27    1
    14    27    28   ar
    15    28    29   ar
    16    29    30   ar
    17    30    32    1
    18    32    33   ar
    19    32    34   ar
    20    30    31   ar
    21    24    25   ar
    22    25    26   ar
    23     4     5   am
    24     5     6    2
    25     5     7    1
    26     7     8    1
    27     8     9    1
    28     9    10    1
    29    10    35    1
    30    35    36    1
    31    36    37   ar
    32    37    38   ar
    33    38    39   ar
    34    39    40   ar
    35    40    41   ar
    36    41    42    1
    37    10    11    1
    38    11    12    1
    39    15    16   ar
    40    16    17   ar
    41    17    18   ar
    42    18    13   ar
    43     7     1    1
    44    41    36   ar
    45    26    21   ar
    46    12     7    1
    47    31    27   ar
@<TRIPOS>MOLECULE
*****
 42 47 0 0 0
SMALL
GASTEIGER

@<TRIPOS>ATOM
      1 N         140.0963  140.4171  159.1048 N.am    1  UNL1       -0.2222
      2 C         139.6775  140.9486  160.4436 C.2     1  UNL1        0.3219
      3 O         138.7203  142.0782  160.6836 O.2     1  UNL1       -0.2512
      4 N         140.3842  140.1520  161.5001 N.am    1  UNL1       -0.1907
      5 C         141.2395  139.1283  160.8144 C.2     1  UNL1        0.2529
      6 O         142.1185  138.1181  161.4902 O.2     1  UNL1       -0.2724
      7 C         141.0616  139.2921  159.3339 C.3     1  UNL1        0.1391
      8 C         140.7846  139.5731  157.8868 C.3     1  UNL1        0.0449
      9 C         141.4545  138.7555  156.8225 C.3     1  UNL1        0.0746
     10 N         142.4013  137.6569  157.2053 N.3     1  UNL1       -0.2676
     11 C         142.6783  137.3759  158.6524 C.3     1  UNL1        0.0746
     12 C         142.0085  138.1935  159.7167 C.3     1  UNL1        0.0449
     13 C         137.8953  140.9019  155.8382 C.ar    1  UNL1        0.2293
     14 C         138.3603  140.3970  157.1720 C.ar    1  UNL1        0.0924
     15 C         139.6313  140.9220  157.7710 C.ar    1  UNL1        0.1453
     16 N         140.4373  141.9519  157.0364 N.ar    1  UNL1       -0.2084
     17 C         139.9723  142.4568  155.7027 C.ar    1  UNL1        0.2027
     18 N         138.7013  141.9318  155.1036 N.ar    1  UNL1       -0.1892
     19 C         135.3070  140.6827  155.8881 C.3     1  UNL1        0.2542
     20 O         136.6243  140.3770  155.2391 O.3     1  UNL1       -0.4560
     21 C         140.2576  140.3452  162.9822 C.ar    1  UNL1        0.0622
     22 C         138.9421  140.1021  163.6606 C.ar    1  UNL1        0.0154
     23 C         138.8155  140.2953  165.1427 C.ar    1  UNL1        0.0013
     24 C         140.0044  140.7317  165.9464 C.ar    1  UNL1        0.0006
     25 C         141.3200  140.9749  165.2680 C.ar    1  UNL1        0.0013
     26 C         141.4465  140.7816  163.7859 C.ar    1  UNL1        0.0154
     27 C         139.8779  140.9250  167.4285 C.ar    1  UNL1        0.0070
     28 C         139.4010  139.8994  168.4138 C.ar    1  UNL1        0.0355
     29 S         139.4343  140.5182  169.7798 S.2     1  UNL1       -0.0853
     30 C         139.9318  141.9263  169.6387 C.ar    1  UNL1        0.0434
     31 C         140.2059  142.1777  168.1855 C.ar    1  UNL1        0.0081
     32 C         140.1218  142.9103  170.7548 C.2     1  UNL1        0.0789
     33 O         140.1264  144.3820  170.4645 O.co2   1  UNL1       -0.5441
     34 O         140.3072  142.4227  172.1611 O.co2   1  UNL1       -0.5441
     35 C         143.0712  136.8393  156.1409 C.3     1  UNL1        0.1183
     36 C         142.8806  135.3519  156.1065 C.ar    1  UNL1        0.0712
     37 N         143.8212  134.4577  156.8586 N.ar    1  UNL1       -0.2471
     38 C         143.6305  132.9702  156.8242 C.ar    1  UNL1        0.0985
     39 C         142.4994  132.3770  156.0378 C.ar    1  UNL1        0.0203
     40 C         141.5588  133.2712  155.2857 C.ar    1  UNL1       -0.0015
     41 C         141.7494  134.7586  155.3200 C.ar    1  UNL1       -0.0069
     42 C         140.8088  135.6529  154.5679 C.3     1  UNL1        0.0323
@<TRIPOS>UNITY_ATOM_ATTR
33 1
charge -1
@<TRIPOS>BOND
     1    19    20    1
     2    20    13    1
     3    13    14   ar
     4    14    15   ar
     5    15     1    1
     6     1     2   am
     7     2     3    2
     8     2     4   am
     9     4    21    1
    10    21    22   ar
    11    22    23   ar
    12    23    24   ar
    13    24    27    1
    14    27    28   ar
    15    28    29   ar
    16    29    30   ar
    17    30    32    1
    18    32    33   ar
    19    32    34   ar
    20    30    31   ar
    21    24    25   ar
    22    25    26   ar
    23     4     5   am
    24     5     6    2
    25     5     7    1
    26     7     8    1
    27     8     9    1
    28     9    10    1
    29    10    35    1
    30    35    36    1
    31    36    37   ar
    32    37    38   ar
    33    38    39   ar
    34    39    40   ar
    35    40    41   ar
    36    41    42    1
    37    10    11    1
    38    11    12    1
    39    15    16   ar
    40    16    17   ar
    41    17    18   ar
    42    18    13   ar
    43     7     1    1
    44    41    36   ar
    45    26    21   ar
    46    12     7    1
    47    31    27   ar
