@<TRIPOS>MOLECULE
*****
 32 35 0 0 0
SMALL
GASTEIGER

@<TRIPOS>ATOM
      1 C         142.9110  139.2236  165.0014 C.ar    1  UNL1        0.0617
      2 C         143.7759  139.7862  163.9126 C.ar    1  UNL1        0.0326
      3 C         144.2198  141.1557  164.3343 C.ar    1  UNL1        0.0977
      4 N         143.6291  141.4393  165.6836 N.ar    1  UNL1       -0.1683
      5 N         142.8202  140.2453  166.0959 N.ar    1  UNL1       -0.2340
      6 C         142.0550  140.0986  167.3776 C.ar    1  UNL1        0.0826
      7 C         140.5844  140.3922  167.4109 C.ar    1  UNL1        0.0214
      8 C         139.8192  140.2455  168.6927 C.ar    1  UNL1        0.0312
      9 C         140.5246  139.8052  169.9411 C.ar    1  UNL1        0.1402
     10 F         139.7593  139.6584  171.2229 F       1  UNL1       -0.2042
     11 C         141.9952  139.5115  169.9078 C.ar    1  UNL1        0.0312
     12 C         142.7604  139.6582  168.6260 C.ar    1  UNL1        0.0214
     13 C         142.2524  137.8759  164.9964 C.3     1  UNL1        0.0459
     14 C         141.0391  137.4497  162.7389 C.3     1  UNL1        0.0004
     15 C         140.9851  137.6633  164.2226 C.3     1  UNL1        0.0059
     16 C         139.6638  137.6642  164.9325 C.3     1  UNL1        0.0004
     17 C         145.0998  142.0792  163.5452 C.3     1  UNL1        0.1387
     18 N         144.6495  142.5816  162.2054 N.3     1  UNL1       -0.1732
     19 H         144.5835  141.7685  161.5930 H       1  UNL1        0.1492
     20 S         143.3524  143.3244  162.0802 S.O2    1  UNL1        0.0620
     21 O         144.0107  144.5634  162.6106 O.2     1  UNL1       -0.1529
     22 O         142.6941  142.0853  161.5497 O.2     1  UNL1       -0.1529
     23 C         142.0553  144.0672  161.9549 C.ar    1  UNL1        0.1394
     24 C         141.7155  144.7728  160.6756 C.ar    1  UNL1        0.0214
     25 C         140.4184  145.5156  160.5504 C.ar    1  UNL1        0.0015
     26 C         139.4610  145.5528  161.7044 C.ar    1  UNL1        0.0016
     27 C         139.8007  144.8472  162.9838 C.ar    1  UNL1        0.0190
     28 C         138.8433  144.8844  164.1379 C.ar    1  UNL1        0.0031
     29 C         139.1830  144.1788  165.4172 C.ar    1  UNL1        0.0207
     30 C         140.4801  143.4360  165.5424 C.ar    1  UNL1        0.0989
     31 N         141.4375  143.3988  164.3884 N.ar    1  UNL1       -0.2425
     32 C         141.0978  144.1044  163.1091 C.ar    1  UNL1        0.0998
@<TRIPOS>BOND
     1    14    15    1
     2    15    16    1
     3    15    13    1
     4    13     1    1
     5     1     2   ar
     6     2     3   ar
     7     3    17    1
     8    17    18    1
     9    18    20    1
    10    20    21    2
    11    20    22    2
    12    20    23    1
    13    23    24   ar
    14    24    25   ar
    15    25    26   ar
    16    26    27   ar
    17    27    28   ar
    18    28    29   ar
    19    29    30   ar
    20    30    31   ar
    21    31    32   ar
    22     3     4   ar
    23     4     5   ar
    24     5     6    1
    25     6     7   ar
    26     7     8   ar
    27     8     9   ar
    28     9    10    1
    29     9    11   ar
    30    11    12   ar
    31     5     1   ar
    32    12     6   ar
    33    32    23   ar
    34    32    27   ar
    35    18    19    1
@<TRIPOS>MOLECULE
*****
 32 35 0 0 0
SMALL
GASTEIGER

@<TRIPOS>ATOM
      1 C         139.3017  141.3996  165.4936 C.ar    1  UNL1        0.0617
      2 C         138.4374  141.8104  164.3385 C.ar    1  UNL1        0.0326
      3 C         138.4750  143.3068  164.2408 C.ar    1  UNL1        0.0977
      4 N         139.3626  143.8207  165.3354 N.ar    1  UNL1       -0.1683
      5 N         139.8735  142.6420  166.1097 N.ar    1  UNL1       -0.2340
      6 C         140.7944  142.6960  167.2924 C.ar    1  UNL1        0.0826
      7 C         142.1993  142.1842  167.1730 C.ar    1  UNL1        0.0214
      8 C         143.1203  142.2383  168.3558 C.ar    1  UNL1        0.0312
      9 C         142.6363  142.8043  169.6579 C.ar    1  UNL1        0.1402
     10 F         143.5573  142.8583  170.8407 F       1  UNL1       -0.2042
     11 C         141.2314  143.3161  169.7773 C.ar    1  UNL1        0.0312
     12 C         140.3104  143.2619  168.5945 C.ar    1  UNL1        0.0214
     13 C         139.5505  139.9932  165.9521 C.3     1  UNL1        0.0459
     14 C         137.6674  138.4873  166.9198 C.3     1  UNL1        0.0004
     15 C         138.8023  139.4452  167.1310 C.3     1  UNL1        0.0059
     16 C         139.1889  139.8550  168.5212 C.3     1  UNL1        0.0004
     17 C         137.7521  144.1426  163.2264 C.3     1  UNL1        0.1387
     18 N         138.5165  145.1012  162.3622 N.3     1  UNL1       -0.1732
     19 H         138.8557  145.8433  162.9744 H       1  UNL1        0.1492
     20 S         139.6961  144.6201  161.5703 S.O2    1  UNL1        0.0620
     21 O         140.5607  145.6527  162.2308 O.2     1  UNL1       -0.1529
     22 O         138.8315  143.5875  160.9098 O.2     1  UNL1       -0.1529
     23 C         140.8756  144.1390  160.7783 C.ar    1  UNL1        0.1394
     24 C         141.1137  144.6641  159.3935 C.ar    1  UNL1        0.0214
     25 C         142.2933  144.1830  158.6015 C.ar    1  UNL1        0.0015
     26 C         143.2347  143.1769  159.1943 C.ar    1  UNL1        0.0016
     27 C         142.9967  142.6518  160.5792 C.ar    1  UNL1        0.0190
     28 C         143.9381  141.6458  161.1720 C.ar    1  UNL1        0.0031
     29 C         143.7000  141.1208  162.5567 C.ar    1  UNL1        0.0207
     30 C         142.5204  141.6018  163.3487 C.ar    1  UNL1        0.0989
     31 N         141.5790  142.6079  162.7559 N.ar    1  UNL1       -0.2425
     32 C         141.8171  143.1329  161.3711 C.ar    1  UNL1        0.0998
@<TRIPOS>BOND
     1    14    15    1
     2    15    16    1
     3    15    13    1
     4    13     1    1
     5     1     2   ar
     6     2     3   ar
     7     3    17    1
     8    17    18    1
     9    18    20    1
    10    20    21    2
    11    20    22    2
    12    20    23    1
    13    23    24   ar
    14    24    25   ar
    15    25    26   ar
    16    26    27   ar
    17    27    28   ar
    18    28    29   ar
    19    29    30   ar
    20    30    31   ar
    21    31    32   ar
    22     3     4   ar
    23     4     5   ar
    24     5     6    1
    25     6     7   ar
    26     7     8   ar
    27     8     9   ar
    28     9    10    1
    29     9    11   ar
    30    11    12   ar
    31     5     1   ar
    32    12     6   ar
    33    32    23   ar
    34    32    27   ar
    35    18    19    1
@<TRIPOS>MOLECULE
*****
 32 35 0 0 0
SMALL
GASTEIGER

@<TRIPOS>ATOM
      1 C         143.2000  140.1749  165.6178 C.ar    1  UNL1        0.0617
      2 C         144.1454  140.0768  164.4573 C.ar    1  UNL1        0.0326
      3 C         144.7210  141.4402  164.2120 C.ar    1  UNL1        0.0977
      4 N         144.1314  142.3807  165.2208 N.ar    1  UNL1       -0.1683
      5 N         143.1913  141.5987  166.0896 N.ar    1  UNL1       -0.2340
      6 C         142.3843  142.1446  167.2300 C.ar    1  UNL1        0.0826
      7 C         140.9543  142.5425  167.0141 C.ar    1  UNL1        0.0214
      8 C         140.1473  143.0884  168.1546 C.ar    1  UNL1        0.0312
      9 C         140.7704  143.2365  169.5110 C.ar    1  UNL1        0.1402
     10 F         139.9633  143.7824  170.6515 F       1  UNL1       -0.2042
     11 C         142.2004  142.8387  169.7270 C.ar    1  UNL1        0.0312
     12 C         143.0074  142.2927  168.5865 C.ar    1  UNL1        0.0214
     13 C         142.4032  139.0471  166.2035 C.3     1  UNL1        0.0459
     14 C         139.8533  139.1957  165.7280 C.3     1  UNL1        0.0004
     15 C         141.1828  138.5423  165.4922 C.3     1  UNL1        0.0059
     16 C         141.2919  137.3843  164.5450 C.3     1  UNL1        0.0004
     17 C         145.7123  141.7998  163.1451 C.3     1  UNL1        0.1387
     18 N         145.2424  142.4225  161.8639 N.3     1  UNL1       -0.1732
     19 H         145.1842  141.6719  161.1757 H       1  UNL1        0.1492
     20 S         143.9324  143.1520  161.8209 S.O2    1  UNL1        0.0620
     21 O         143.2495  141.8984  161.3603 O.2     1  UNL1       -0.1529
     22 O         144.6154  144.4056  162.2814 O.2     1  UNL1       -0.1529
     23 C         142.6225  143.8815  161.7778 C.ar    1  UNL1        0.1394
     24 C         141.8694  144.1464  163.0477 C.ar    1  UNL1        0.0214
     25 C         140.5595  144.8759  163.0047 C.ar    1  UNL1        0.0015
     26 C         140.0026  145.3405  161.6917 C.ar    1  UNL1        0.0016
     27 C         140.7556  145.0756  160.4217 C.ar    1  UNL1        0.0190
     28 C         140.1987  145.5403  159.1087 C.ar    1  UNL1        0.0031
     29 C         140.9518  145.2754  157.8388 C.ar    1  UNL1        0.0207
     30 C         142.2617  144.5459  157.8819 C.ar    1  UNL1        0.0989
     31 N         142.8186  144.0813  159.1948 N.ar    1  UNL1       -0.2425
     32 C         142.0656  144.3461  160.4647 C.ar    1  UNL1        0.0998
@<TRIPOS>BOND
     1    14    15    1
     2    15    16    1
     3    15    13    1
     4    13     1    1
     5     1     2   ar
     6     2     3   ar
     7     3    17    1
     8    17    18    1
     9    18    20    1
    10    20    21    2
    11    20    22    2
    12    20    23    1
    13    23    24   ar
    14    24    25   ar
    15    25    26   ar
    16    26    27   ar
    17    27    28   ar
    18    28    29   ar
    19    29    30   ar
    20    30    31   ar
    21    31    32   ar
    22     3     4   ar
    23     4     5   ar
    24     5     6    1
    25     6     7   ar
    26     7     8   ar
    27     8     9   ar
    28     9    10    1
    29     9    11   ar
    30    11    12   ar
    31     5     1   ar
    32    12     6   ar
    33    32    23   ar
    34    32    27   ar
    35    18    19    1
@<TRIPOS>MOLECULE
*****
 32 35 0 0 0
SMALL
GASTEIGER

@<TRIPOS>ATOM
      1 C         141.5420  142.9482  165.2351 C.ar    1  UNL1        0.0617
      2 C         141.0527  143.6173  163.9849 C.ar    1  UNL1        0.0326
      3 C         139.6216  144.0122  164.2002 C.ar    1  UNL1        0.0977
      4 N         139.2266  143.5872  165.5834 N.ar    1  UNL1       -0.1683
      5 N         140.4134  142.9296  166.2230 N.ar    1  UNL1       -0.2340
      6 C         140.4630  142.3545  167.6074 C.ar    1  UNL1        0.0826
      7 C         140.4216  143.2641  168.7994 C.ar    1  UNL1        0.0214
      8 C         140.4712  142.6888  170.1839 C.ar    1  UNL1        0.0312
      9 C         140.5622  141.2040  170.3763 C.ar    1  UNL1        0.1402
     10 F         140.6118  140.6287  171.7608 F       1  UNL1       -0.2042
     11 C         140.6036  140.2944  169.1842 C.ar    1  UNL1        0.0312
     12 C         140.5540  140.8696  167.7998 C.ar    1  UNL1        0.0214
     13 C         142.9182  142.3949  165.4582 C.3     1  UNL1        0.0459
     14 C         142.3054  140.0138  164.6186 C.3     1  UNL1        0.0004
     15 C         143.3200  141.1012  164.8140 C.3     1  UNL1        0.0059
     16 C         144.7363  140.8949  164.3653 C.3     1  UNL1        0.0004
     17 C         138.7404  144.7096  163.2067 C.3     1  UNL1        0.1387
     18 N         137.7697  143.9190  162.3803 N.3     1  UNL1       -0.1732
     19 H         137.6548  144.4214  161.5001 H       1  UNL1        0.1492
     20 S         138.0721  142.4926  162.0284 S.O2    1  UNL1        0.0620
     21 O         136.9299  142.0384  162.8881 O.2     1  UNL1       -0.1529
     22 O         139.2143  142.9468  161.1688 O.2     1  UNL1       -0.1529
     23 C         138.3745  141.0661  161.6765 C.ar    1  UNL1        0.1394
     24 C         138.4977  140.6584  160.2383 C.ar    1  UNL1        0.0214
     25 C         138.8001  139.2319  159.8865 C.ar    1  UNL1        0.0015
     26 C         138.9792  138.2132  160.9728 C.ar    1  UNL1        0.0016
     27 C         138.8560  138.6210  162.4111 C.ar    1  UNL1        0.0190
     28 C         139.0351  137.6023  163.4974 C.ar    1  UNL1        0.0031
     29 C         138.9118  138.0101  164.9356 C.ar    1  UNL1        0.0207
     30 C         138.6095  139.4365  165.2875 C.ar    1  UNL1        0.0989
     31 N         138.4303  140.4552  164.2012 N.ar    1  UNL1       -0.2425
     32 C         138.5536  140.0474  162.7630 C.ar    1  UNL1        0.0998
@<TRIPOS>BOND
     1    14    15    1
     2    15    16    1
     3    15    13    1
     4    13     1    1
     5     1     2   ar
     6     2     3   ar
     7     3    17    1
     8    17    18    1
     9    18    20    1
    10    20    21    2
    11    20    22    2
    12    20    23    1
    13    23    24   ar
    14    24    25   ar
    15    25    26   ar
    16    26    27   ar
    17    27    28   ar
    18    28    29   ar
    19    29    30   ar
    20    30    31   ar
    21    31    32   ar
    22     3     4   ar
    23     4     5   ar
    24     5     6    1
    25     6     7   ar
    26     7     8   ar
    27     8     9   ar
    28     9    10    1
    29     9    11   ar
    30    11    12   ar
    31     5     1   ar
    32    12     6   ar
    33    32    23   ar
    34    32    27   ar
    35    18    19    1
@<TRIPOS>MOLECULE
*****
 32 35 0 0 0
SMALL
GASTEIGER

@<TRIPOS>ATOM
      1 C         139.4022  141.0663  165.5739 C.ar    1  UNL1        0.0617
      2 C         138.5085  141.3708  164.4084 C.ar    1  UNL1        0.0326
      3 C         138.4410  142.8613  164.2532 C.ar    1  UNL1        0.0977
      4 N         139.2929  143.4778  165.3228 N.ar    1  UNL1       -0.1683
      5 N         139.8870  142.3684  166.1391 N.ar    1  UNL1       -0.2340
      6 C         140.8048  142.5323  167.3141 C.ar    1  UNL1        0.0826
      7 C         142.2389  142.1051  167.2110 C.ar    1  UNL1        0.0214
      8 C         143.1566  142.2690  168.3861 C.ar    1  UNL1        0.0312
      9 C         142.6402  142.8602  169.6644 C.ar    1  UNL1        0.1402
     10 F         143.5579  143.0241  170.8395 F       1  UNL1       -0.2042
     11 C         141.2060  143.2873  169.7675 C.ar    1  UNL1        0.0312
     12 C         140.2883  143.1234  168.5924 C.ar    1  UNL1        0.0214
     13 C         139.7500  139.6994  166.0847 C.3     1  UNL1        0.0459
     14 C         137.6574  138.3851  166.8870 C.3     1  UNL1        0.0004
     15 C         138.7830  138.5658  165.9121 C.3     1  UNL1        0.0059
     16 C         138.9416  137.6128  164.7646 C.3     1  UNL1        0.0004
     17 C         137.6588  143.6047  163.2113 C.3     1  UNL1        0.1387
     18 N         138.3305  144.6543  162.3761 N.3     1  UNL1       -0.1732
     19 H         138.6251  145.3939  163.0137 H       1  UNL1        0.1492
     20 S         139.5264  144.2984  161.5436 S.O2    1  UNL1        0.0620
     21 O         140.3494  145.3007  162.2973 O.2     1  UNL1       -0.1529
     22 O         138.7035  143.2960  160.7899 O.2     1  UNL1       -0.1529
     23 C         140.7224  143.9424  160.7112 C.ar    1  UNL1        0.1394
     24 C         141.7095  142.9297  161.2109 C.ar    1  UNL1        0.0214
     25 C         142.9055  142.5738  160.3785 C.ar    1  UNL1        0.0015
     26 C         143.1143  143.2306  159.0462 C.ar    1  UNL1        0.0016
     27 C         142.1271  144.2434  158.5464 C.ar    1  UNL1        0.0190
     28 C         142.3359  144.9002  157.2141 C.ar    1  UNL1        0.0031
     29 C         141.3488  145.9130  156.7144 C.ar    1  UNL1        0.0207
     30 C         140.1528  146.2689  157.5468 C.ar    1  UNL1        0.0989
     31 N         139.9440  145.6121  158.8791 N.ar    1  UNL1       -0.2425
     32 C         140.9312  144.5993  159.3789 C.ar    1  UNL1        0.0998
@<TRIPOS>BOND
     1    14    15    1
     2    15    16    1
     3    15    13    1
     4    13     1    1
     5     1     2   ar
     6     2     3   ar
     7     3    17    1
     8    17    18    1
     9    18    20    1
    10    20    21    2
    11    20    22    2
    12    20    23    1
    13    23    24   ar
    14    24    25   ar
    15    25    26   ar
    16    26    27   ar
    17    27    28   ar
    18    28    29   ar
    19    29    30   ar
    20    30    31   ar
    21    31    32   ar
    22     3     4   ar
    23     4     5   ar
    24     5     6    1
    25     6     7   ar
    26     7     8   ar
    27     8     9   ar
    28     9    10    1
    29     9    11   ar
    30    11    12   ar
    31     5     1   ar
    32    12     6   ar
    33    32    23   ar
    34    32    27   ar
    35    18    19    1
@<TRIPOS>MOLECULE
*****
 32 35 0 0 0
SMALL
GASTEIGER

@<TRIPOS>ATOM
      1 C         138.6663  140.9728  165.3272 C.ar    1  UNL1        0.0617
      2 C         138.1143  142.0825  164.4822 C.ar    1  UNL1        0.0326
      3 C         138.8297  143.3476  164.8538 C.ar    1  UNL1        0.0977
      4 N         139.8237  143.0197  165.9282 N.ar    1  UNL1       -0.1683
      5 N         139.7227  141.5519  166.2208 N.ar    1  UNL1       -0.2340
      6 C         140.5354  140.7961  167.2298 C.ar    1  UNL1        0.0826
      7 C         140.0274  140.6329  168.6317 C.ar    1  UNL1        0.0214
      8 C         140.8401  139.8770  169.6407 C.ar    1  UNL1        0.0312
      9 C         142.1609  139.2843  169.2478 C.ar    1  UNL1        0.1402
     10 F         142.9736  138.5284  170.2568 F       1  UNL1       -0.2042
     11 C         142.6688  139.4475  167.8459 C.ar    1  UNL1        0.0312
     12 C         141.8561  140.2033  166.8369 C.ar    1  UNL1        0.0214
     13 C         138.2371  139.5361  165.2857 C.3     1  UNL1        0.0459
     14 C         138.5066  138.5783  162.8856 C.3     1  UNL1        0.0004
     15 C         138.8975  138.5832  164.3338 C.3     1  UNL1        0.0059
     16 C         139.9487  137.6353  164.8301 C.3     1  UNL1        0.0004
     17 C         138.5926  144.7027  164.2558 C.3     1  UNL1        0.1387
     18 N         139.6952  145.3983  163.5137 N.3     1  UNL1       -0.1732
     19 H         140.3903  145.6722  164.2080 H       1  UNL1        0.1492
     20 S         140.4328  144.6816  162.4218 S.O2    1  UNL1        0.0620
     21 O         141.7294  144.9326  163.1329 O.2     1  UNL1       -0.1529
     22 O         139.1361  144.4306  161.7106 O.2     1  UNL1       -0.1529
     23 C         141.1704  143.9650  161.3298 C.ar    1  UNL1        0.1394
     24 C         141.4623  144.6663  160.0364 C.ar    1  UNL1        0.0214
     25 C         142.1999  143.9496  158.9445 C.ar    1  UNL1        0.0015
     26 C         142.6456  142.5316  159.1460 C.ar    1  UNL1        0.0016
     27 C         142.3537  141.8302  160.4394 C.ar    1  UNL1        0.0190
     28 C         142.7994  140.4122  160.6409 C.ar    1  UNL1        0.0031
     29 C         142.5075  139.7110  161.9343 C.ar    1  UNL1        0.0207
     30 C         141.7699  140.4276  163.0262 C.ar    1  UNL1        0.0989
     31 N         141.3242  141.8456  162.8248 N.ar    1  UNL1       -0.2425
     32 C         141.6161  142.5469  161.5314 C.ar    1  UNL1        0.0998
@<TRIPOS>BOND
     1    14    15    1
     2    15    16    1
     3    15    13    1
     4    13     1    1
     5     1     2   ar
     6     2     3   ar
     7     3    17    1
     8    17    18    1
     9    18    20    1
    10    20    21    2
    11    20    22    2
    12    20    23    1
    13    23    24   ar
    14    24    25   ar
    15    25    26   ar
    16    26    27   ar
    17    27    28   ar
    18    28    29   ar
    19    29    30   ar
    20    30    31   ar
    21    31    32   ar
    22     3     4   ar
    23     4     5   ar
    24     5     6    1
    25     6     7   ar
    26     7     8   ar
    27     8     9   ar
    28     9    10    1
    29     9    11   ar
    30    11    12   ar
    31     5     1   ar
    32    12     6   ar
    33    32    23   ar
    34    32    27   ar
    35    18    19    1
@<TRIPOS>MOLECULE
*****
 32 35 0 0 0
SMALL
GASTEIGER

@<TRIPOS>ATOM
      1 C         139.0355  141.3476  165.0274 C.ar    1  UNL1        0.0617
      2 C         138.4543  142.6545  164.5754 C.ar    1  UNL1        0.0326
      3 C         139.5753  143.6443  164.4578 C.ar    1  UNL1        0.0977
      4 N         140.8492  142.9491  164.8371 N.ar    1  UNL1       -0.1683
      5 N         140.5156  141.5296  165.1891 N.ar    1  UNL1       -0.2340
      6 C         141.4908  140.4771  165.6261 C.ar    1  UNL1        0.0826
      7 C         141.7745  140.2769  167.0854 C.ar    1  UNL1        0.0214
      8 C         142.7497  139.2243  167.5223 C.ar    1  UNL1        0.0312
      9 C         143.4413  138.3719  166.5000 C.ar    1  UNL1        0.1402
     10 F         144.4166  137.3192  166.9370 F       1  UNL1       -0.2042
     11 C         143.1576  138.5720  165.0408 C.ar    1  UNL1        0.0312
     12 C         142.1824  139.6246  164.6038 C.ar    1  UNL1        0.0214
     13 C         138.2708  140.0810  165.2743 C.3     1  UNL1        0.0459
     14 C         138.4348  138.8796  162.9765 C.3     1  UNL1        0.0004
     15 C         138.5751  138.8522  164.4697 C.3     1  UNL1        0.0059
     16 C         139.0198  137.5959  165.1582 C.3     1  UNL1        0.0004
     17 C         139.4452  145.0776  164.0351 C.3     1  UNL1        0.1387
     18 N         140.4367  145.6703  163.0781 N.3     1  UNL1       -0.1732
     19 H         141.3640  145.4325  163.4301 H       1  UNL1        0.1492
     20 S         140.4090  145.2775  161.6307 S.O2    1  UNL1        0.0620
     21 O         139.1064  146.0012  161.4592 O.2     1  UNL1       -0.1529
     22 O         141.7116  144.5538  161.8022 O.2     1  UNL1       -0.1529
     23 C         140.3814  144.8847  160.1833 C.ar    1  UNL1        0.1394
     24 C         141.0417  145.7566  159.1568 C.ar    1  UNL1        0.0214
     25 C         141.0141  145.3639  157.7094 C.ar    1  UNL1        0.0015
     26 C         140.3261  144.0992  157.2885 C.ar    1  UNL1        0.0016
     27 C         139.6658  143.2272  158.3150 C.ar    1  UNL1        0.0190
     28 C         138.9778  141.9625  157.8941 C.ar    1  UNL1        0.0031
     29 C         138.3175  141.0905  158.9206 C.ar    1  UNL1        0.0207
     30 C         138.3452  141.4833  160.3680 C.ar    1  UNL1        0.0989
     31 N         139.0331  142.7480  160.7889 N.ar    1  UNL1       -0.2425
     32 C         139.6934  143.6199  159.7624 C.ar    1  UNL1        0.0998
@<TRIPOS>BOND
     1    14    15    1
     2    15    16    1
     3    15    13    1
     4    13     1    1
     5     1     2   ar
     6     2     3   ar
     7     3    17    1
     8    17    18    1
     9    18    20    1
    10    20    21    2
    11    20    22    2
    12    20    23    1
    13    23    24   ar
    14    24    25   ar
    15    25    26   ar
    16    26    27   ar
    17    27    28   ar
    18    28    29   ar
    19    29    30   ar
    20    30    31   ar
    21    31    32   ar
    22     3     4   ar
    23     4     5   ar
    24     5     6    1
    25     6     7   ar
    26     7     8   ar
    27     8     9   ar
    28     9    10    1
    29     9    11   ar
    30    11    12   ar
    31     5     1   ar
    32    12     6   ar
    33    32    23   ar
    34    32    27   ar
    35    18    19    1
@<TRIPOS>MOLECULE
*****
 32 35 0 0 0
SMALL
GASTEIGER

@<TRIPOS>ATOM
      1 C         141.0728  140.0431  165.1075 C.ar    1  UNL1        0.0617
      2 C         140.5790  139.4904  163.8033 C.ar    1  UNL1        0.0326
      3 C         139.0796  139.4742  163.8449 C.ar    1  UNL1        0.0977
      4 N         138.6468  140.0169  165.1746 N.ar    1  UNL1       -0.1683
      5 N         139.8787  140.3685  165.9549 N.ar    1  UNL1       -0.2340
      6 C         139.9108  140.9444  167.3395 C.ar    1  UNL1        0.0826
      7 C         139.4294  140.1285  168.5025 C.ar    1  UNL1        0.0214
      8 C         139.4616  140.7045  169.8872 C.ar    1  UNL1        0.0312
      9 C         139.9751  142.0963  170.1088 C.ar    1  UNL1        0.1402
     10 F         140.0073  142.6722  171.4935 F       1  UNL1       -0.2042
     11 C         140.4566  142.9121  168.9458 C.ar    1  UNL1        0.0312
     12 C         140.4244  142.3362  167.5612 C.ar    1  UNL1        0.0214
     13 C         142.5087  140.2365  165.4959 C.3     1  UNL1        0.0459
     14 C         143.6059  142.5229  166.0605 C.3     1  UNL1        0.0004
     15 C         143.2450  141.4676  165.0574 C.3     1  UNL1        0.0059
     16 C         143.6205  141.6434  163.6158 C.3     1  UNL1        0.0004
     17 C         138.1724  138.9987  162.7490 C.3     1  UNL1        0.1387
     18 N         137.4934  139.9923  161.8534 N.3     1  UNL1       -0.1732
     19 H         136.6784  140.3370  162.3606 H       1  UNL1        0.1492
     20 S         138.2422  141.1974  161.3666 S.O2    1  UNL1        0.0620
     21 O         137.3090  142.0869  162.1335 O.2     1  UNL1       -0.1529
     22 O         139.1753  140.3079  160.5998 O.2     1  UNL1       -0.1529
     23 C         138.9909  142.4026  160.8799 C.ar    1  UNL1        0.1394
     24 C         138.9853  142.7502  159.4207 C.ar    1  UNL1        0.0214
     25 C         139.7340  143.9554  158.9340 C.ar    1  UNL1        0.0015
     26 C         140.4884  144.8129  159.9063 C.ar    1  UNL1        0.0016
     27 C         140.4941  144.4653  161.3655 C.ar    1  UNL1        0.0190
     28 C         141.2485  145.3228  162.3378 C.ar    1  UNL1        0.0031
     29 C         141.2542  144.9752  163.7969 C.ar    1  UNL1        0.0207
     30 C         140.5054  143.7700  164.2837 C.ar    1  UNL1        0.0989
     31 N         139.7510  142.9125  163.3114 N.ar    1  UNL1       -0.2425
     32 C         139.7454  143.2601  161.8523 C.ar    1  UNL1        0.0998
@<TRIPOS>BOND
     1    14    15    1
     2    15    16    1
     3    15    13    1
     4    13     1    1
     5     1     2   ar
     6     2     3   ar
     7     3    17    1
     8    17    18    1
     9    18    20    1
    10    20    21    2
    11    20    22    2
    12    20    23    1
    13    23    24   ar
    14    24    25   ar
    15    25    26   ar
    16    26    27   ar
    17    27    28   ar
    18    28    29   ar
    19    29    30   ar
    20    30    31   ar
    21    31    32   ar
    22     3     4   ar
    23     4     5   ar
    24     5     6    1
    25     6     7   ar
    26     7     8   ar
    27     8     9   ar
    28     9    10    1
    29     9    11   ar
    30    11    12   ar
    31     5     1   ar
    32    12     6   ar
    33    32    23   ar
    34    32    27   ar
    35    18    19    1
@<TRIPOS>MOLECULE
*****
 32 35 0 0 0
SMALL
GASTEIGER

@<TRIPOS>ATOM
      1 C         140.8576  139.8721  165.5266 C.ar    1  UNL1        0.0617
      2 C         141.8637  139.3140  164.5641 C.ar    1  UNL1        0.0326
      3 C         143.2327  139.6167  165.0973 C.ar    1  UNL1        0.0977
      4 N         143.0727  140.3619  166.3892 N.ar    1  UNL1       -0.1683
      5 N         141.6048  140.5197  166.6545 N.ar    1  UNL1       -0.2340
      6 C         140.9917  141.2049  167.8396 C.ar    1  UNL1        0.0826
      7 C         141.0411  142.7000  167.9501 C.ar    1  UNL1        0.0214
      8 C         140.4279  143.3851  169.1353 C.ar    1  UNL1        0.0312
      9 C         139.7655  142.5751  170.2100 C.ar    1  UNL1        0.1402
     10 F         139.1523  143.2603  171.3953 F       1  UNL1       -0.2042
     11 C         139.7162  141.0800  170.0996 C.ar    1  UNL1        0.0312
     12 C         140.3293  140.3949  168.9144 C.ar    1  UNL1        0.0214
     13 C         139.3662  139.7959  165.3857 C.3     1  UNL1        0.0459
     14 C         137.7160  138.6564  167.0375 C.3     1  UNL1        0.0004
     15 C         138.6303  138.5745  165.8512 C.3     1  UNL1        0.0059
     16 C         138.8086  137.2713  165.1303 C.3     1  UNL1        0.0004
     17 C         144.5334  139.2403  164.4518 C.3     1  UNL1        0.1387
     18 N         145.2825  140.2478  163.6309 N.3     1  UNL1       -0.1732
     19 H         145.9689  139.7292  163.0827 H       1  UNL1        0.1492
     20 S         144.5429  141.1335  162.6725 S.O2    1  UNL1        0.0620
     21 O         145.0360  142.3431  163.4098 O.2     1  UNL1       -0.1529
     22 O         144.0497  139.9239  161.9352 O.2     1  UNL1       -0.1529
     23 C         143.8032  142.0192  161.7142 C.ar    1  UNL1        0.1394
     24 C         144.2565  142.1251  160.2883 C.ar    1  UNL1        0.0214
     25 C         143.5169  143.0108  159.3299 C.ar    1  UNL1        0.0015
     26 C         142.3239  143.7906  159.7975 C.ar    1  UNL1        0.0016
     27 C         141.8705  143.6847  161.2235 C.ar    1  UNL1        0.0190
     28 C         140.6775  144.4645  161.6910 C.ar    1  UNL1        0.0031
     29 C         140.2242  144.3586  163.1169 C.ar    1  UNL1        0.0207
     30 C         140.9638  143.4729  164.0752 C.ar    1  UNL1        0.0989
     31 N         142.1568  142.6931  163.6077 N.ar    1  UNL1       -0.2425
     32 C         142.6102  142.7990  162.1818 C.ar    1  UNL1        0.0998
@<TRIPOS>BOND
     1    14    15    1
     2    15    16    1
     3    15    13    1
     4    13     1    1
     5     1     2   ar
     6     2     3   ar
     7     3    17    1
     8    17    18    1
     9    18    20    1
    10    20    21    2
    11    20    22    2
    12    20    23    1
    13    23    24   ar
    14    24    25   ar
    15    25    26   ar
    16    26    27   ar
    17    27    28   ar
    18    28    29   ar
    19    29    30   ar
    20    30    31   ar
    21    31    32   ar
    22     3     4   ar
    23     4     5   ar
    24     5     6    1
    25     6     7   ar
    26     7     8   ar
    27     8     9   ar
    28     9    10    1
    29     9    11   ar
    30    11    12   ar
    31     5     1   ar
    32    12     6   ar
    33    32    23   ar
    34    32    27   ar
    35    18    19    1
