@<TRIPOS>MOLECULE
*****
 39 44 0 0 0
SMALL
GASTEIGER

@<TRIPOS>ATOM
      1 C         141.4443  143.9807  160.9356 C.ar    1  UNL1        0.0932
      2 C         141.1003  145.3622  160.4629 C.ar    1  UNL1        0.0405
      3 C         139.8350  146.0205  160.9274 C.ar    1  UNL1        0.1034
      4 N         138.9137  145.2974  161.8646 N.ar    1  UNL1       -0.2120
      5 C         139.2577  143.9160  162.3372 C.ar    1  UNL1        0.2207
      6 N         140.5230  143.2577  161.8727 N.ar    1  UNL1       -0.2130
      7 C         143.7810  142.7513  161.3518 C.ar    1  UNL1        0.0907
      8 N         144.8591  142.1956  160.4693 N.ar    1  UNL1       -0.2240
      9 C         144.4540  142.4234  159.0431 C.ar    1  UNL1        0.1632
     10 S         143.1255  143.1198  159.0442 S.2     1  UNL1       -0.0500
     11 C         142.7096  143.3225  160.4710 C.ar    1  UNL1        0.0674
     12 F         143.7583  142.6985  167.3515 F       1  UNL1       -0.2042
     13 C         143.7640  142.7117  165.8516 C.ar    1  UNL1        0.1401
     14 C         144.1532  143.9585  165.1140 C.ar    1  UNL1        0.0297
     15 C         144.1589  143.9716  163.6141 C.ar    1  UNL1        0.0038
     16 C         143.7753  142.7381  162.8517 C.ar    1  UNL1        0.0184
     17 C         143.3861  141.4914  163.5893 C.ar    1  UNL1        0.0038
     18 C         143.3804  141.4782  165.0893 C.ar    1  UNL1        0.0297
     19 N         145.2395  142.0247  157.8290 N.pl3   1  UNL1       -0.2830
     20 C         144.7611  140.8971  156.9632 C.3     1  UNL1        0.1247
     21 C         145.5466  140.4984  155.7491 C.3     1  UNL1        0.1636
     22 O         146.8104  141.2273  155.4008 O.3     1  UNL1       -0.3501
     23 C         147.2888  142.3549  156.2666 C.3     1  UNL1        0.1636
     24 C         146.5034  142.7536  157.4807 C.3     1  UNL1        0.1247
     25 N         138.3364  143.1929  163.2744 N.pl3   1  UNL1       -0.2825
     26 H         137.3739  143.1394  163.0748 H       1  UNL1        0.1551
     27 C         138.8817  142.5512  164.5157 C.ar    1  UNL1        0.0505
     28 C         138.5805  141.1115  164.8101 C.ar    1  UNL1        0.0159
     29 C         139.1257  140.4697  166.0514 C.ar    1  UNL1        0.0158
     30 C         139.9722  141.2676  166.9984 C.ar    1  UNL1        0.0480
     31 C         140.2735  142.7074  166.7040 C.ar    1  UNL1        0.0158
     32 C         139.7282  143.3491  165.4627 C.ar    1  UNL1        0.0159
     33 N         140.5175  140.6259  168.2397 N.pl3   1  UNL1       -0.3047
     34 C         139.7092  140.6303  169.5032 C.3     1  UNL1        0.1079
     35 C         140.2544  139.9886  170.7446 C.3     1  UNL1        0.0903
     36 N         141.6080  139.3426  170.7223 N.3     1  UNL1       -0.2946
     37 C         142.4164  139.3382  169.4588 C.3     1  UNL1        0.0903
     38 C         141.8711  139.9799  168.2175 C.3     1  UNL1        0.1079
     39 H         141.4732  138.3673  170.9890 H       1  UNL1        0.1233
@<TRIPOS>BOND
     1    12    13    1
     2    13    14   ar
     3    14    15   ar
     4    15    16   ar
     5    16     7    1
     6     7     8   ar
     7     8     9   ar
     8     9    19    1
     9    19    20    1
    10    20    21    1
    11    21    22    1
    12    22    23    1
    13    23    24    1
    14     9    10   ar
    15    10    11   ar
    16    11     1    1
    17     1     2   ar
    18     2     3   ar
    19     3     4   ar
    20     4     5   ar
    21     5    25    1
    22    25    27    1
    23    27    28   ar
    24    28    29   ar
    25    29    30   ar
    26    30    33    1
    27    33    34    1
    28    34    35    1
    29    35    36    1
    30    36    37    1
    31    37    38    1
    32    30    31   ar
    33    31    32   ar
    34     5     6   ar
    35    16    17   ar
    36    17    18   ar
    37    18    13   ar
    38    11     7   ar
    39     6     1   ar
    40    24    19    1
    41    32    27   ar
    42    38    33    1
    43    25    26    1
    44    36    39    1
@<TRIPOS>MOLECULE
*****
 39 44 0 0 0
SMALL
GASTEIGER

@<TRIPOS>ATOM
      1 C         139.9024  140.1428  160.6596 C.ar    1  UNL1        0.0932
      2 C         139.5316  141.3548  159.8572 C.ar    1  UNL1        0.0405
      3 C         138.4854  142.3009  160.3674 C.ar    1  UNL1        0.1034
      4 N         137.8099  142.0351  161.6801 N.ar    1  UNL1       -0.2120
      5 C         138.1806  140.8232  162.4824 C.ar    1  UNL1        0.2207
      6 N         139.2268  139.8771  161.9722 N.ar    1  UNL1       -0.2130
      7 C         141.9420  138.4462  160.9860 C.ar    1  UNL1        0.0907
      8 N         142.7924  137.6207  160.0665 N.ar    1  UNL1       -0.2240
      9 C         142.3247  137.8611  158.6618 C.ar    1  UNL1        0.1632
     10 S         141.1851  138.8352  158.7129 S.2     1  UNL1       -0.0500
     11 C         140.9486  139.1968  160.1494 C.ar    1  UNL1        0.0674
     12 F         142.4282  138.7011  166.9608 F       1  UNL1       -0.2042
     13 C         142.3067  138.6374  165.4671 C.ar    1  UNL1        0.1401
     14 C         141.5183  137.5345  164.8251 C.ar    1  UNL1        0.0297
     15 C         141.3968  137.4708  163.3314 C.ar    1  UNL1        0.0038
     16 C         142.0635  138.5099  162.4797 C.ar    1  UNL1        0.0184
     17 C         142.8519  139.6128  163.1216 C.ar    1  UNL1        0.0038
     18 C         142.9734  139.6765  164.6153 C.ar    1  UNL1        0.0297
     19 N         142.8961  137.2370  157.4233 N.pl3   1  UNL1       -0.2830
     20 C         143.0234  135.7457  157.3252 C.3     1  UNL1        0.1247
     21 C         143.5949  135.1216  156.0867 C.3     1  UNL1        0.1636
     22 O         144.0391  135.9888  154.9463 O.3     1  UNL1       -0.3501
     23 C         143.9118  137.4801  155.0444 C.3     1  UNL1        0.1636
     24 C         143.3404  138.1043  156.2828 C.3     1  UNL1        0.1247
     25 N         137.5051  140.5573  163.7950 N.pl3   1  UNL1       -0.2825
     26 H         136.5416  140.3563  163.8210 H       1  UNL1        0.1551
     27 C         138.2974  140.5978  165.0681 C.ar    1  UNL1        0.0505
     28 C         138.1609  139.4915  166.0719 C.ar    1  UNL1        0.0159
     29 C         138.9532  139.5319  167.3449 C.ar    1  UNL1        0.0158
     30 C         139.8820  140.6786  167.6142 C.ar    1  UNL1        0.0480
     31 C         140.0184  141.7849  166.6104 C.ar    1  UNL1        0.0158
     32 C         139.2261  141.7445  165.3373 C.ar    1  UNL1        0.0159
     33 N         140.6743  140.7190  168.8872 N.pl3   1  UNL1       -0.3047
     34 C         140.0189  140.3677  170.1899 C.3     1  UNL1        0.1079
     35 C         140.8112  140.4082  171.4629 C.3     1  UNL1        0.0903
     36 N         142.2589  140.7999  171.4332 N.3     1  UNL1       -0.2946
     37 C         142.9142  141.1513  170.1306 C.3     1  UNL1        0.0903
     38 C         142.1219  141.1108  168.8575 C.3     1  UNL1        0.1079
     39 H         142.7836  140.0181  171.8254 H       1  UNL1        0.1233
@<TRIPOS>BOND
     1    12    13    1
     2    13    14   ar
     3    14    15   ar
     4    15    16   ar
     5    16     7    1
     6     7     8   ar
     7     8     9   ar
     8     9    19    1
     9    19    20    1
    10    20    21    1
    11    21    22    1
    12    22    23    1
    13    23    24    1
    14     9    10   ar
    15    10    11   ar
    16    11     1    1
    17     1     2   ar
    18     2     3   ar
    19     3     4   ar
    20     4     5   ar
    21     5    25    1
    22    25    27    1
    23    27    28   ar
    24    28    29   ar
    25    29    30   ar
    26    30    33    1
    27    33    34    1
    28    34    35    1
    29    35    36    1
    30    36    37    1
    31    37    38    1
    32    30    31   ar
    33    31    32   ar
    34     5     6   ar
    35    16    17   ar
    36    17    18   ar
    37    18    13   ar
    38    11     7   ar
    39     6     1   ar
    40    24    19    1
    41    32    27   ar
    42    38    33    1
    43    25    26    1
    44    36    39    1
@<TRIPOS>MOLECULE
*****
 39 44 0 0 0
SMALL
GASTEIGER

@<TRIPOS>ATOM
      1 C         140.0560  142.0977  160.4054 C.ar    1  UNL1        0.0932
      2 C         140.4891  140.7776  159.8397 C.ar    1  UNL1        0.0405
      3 C         140.1111  139.5034  160.5350 C.ar    1  UNL1        0.1034
      4 N         139.3001  139.5492  161.7960 N.ar    1  UNL1       -0.2120
      5 C         138.8671  140.8692  162.3617 C.ar    1  UNL1        0.2207
      6 N         139.2450  142.1434  161.6664 N.ar    1  UNL1       -0.2130
      7 C         141.4135  144.3921  160.2100 C.ar    1  UNL1        0.0907
      8 N         141.4836  145.5003  159.2016 N.ar    1  UNL1       -0.2240
      9 C         140.5474  145.1652  158.0786 C.ar    1  UNL1        0.1632
     10 S         139.8986  143.8498  158.3929 S.2     1  UNL1       -0.0500
     11 C         140.4339  143.3720  159.7101 C.ar    1  UNL1        0.0674
     12 F         144.5079  144.0920  165.3417 F       1  UNL1       -0.2042
     13 C         143.7343  144.1670  164.0588 C.ar    1  UNL1        0.1401
     14 C         142.4671  144.9669  163.9927 C.ar    1  UNL1        0.0297
     15 C         141.6935  145.0419  162.7098 C.ar    1  UNL1        0.0038
     16 C         142.1871  144.3171  161.4929 C.ar    1  UNL1        0.0184
     17 C         143.4543  143.5172  161.5589 C.ar    1  UNL1        0.0038
     18 C         144.2279  143.4422  162.8418 C.ar    1  UNL1        0.0297
     19 N         140.3028  145.9991  156.8559 N.pl3   1  UNL1       -0.2830
     20 C         141.0602  145.7174  155.5922 C.3     1  UNL1        0.1247
     21 C         140.8156  146.5512  154.3696 C.3     1  UNL1        0.1636
     22 O         139.8138  147.6668  154.4107 O.3     1  UNL1       -0.3501
     23 C         139.0565  147.9486  155.6744 C.3     1  UNL1        0.1636
     24 C         139.3010  147.1147  156.8971 C.3     1  UNL1        0.1247
     25 N         138.0561  140.9149  163.6227 N.pl3   1  UNL1       -0.2825
     26 H         137.0736  140.9567  163.5749 H       1  UNL1        0.1551
     27 C         138.7419  140.8971  164.9566 C.ar    1  UNL1        0.0505
     28 C         138.5272  139.7468  165.8951 C.ar    1  UNL1        0.0159
     29 C         139.2130  139.7288  167.2290 C.ar    1  UNL1        0.0158
     30 C         140.1137  140.8613  167.6245 C.ar    1  UNL1        0.0480
     31 C         140.3284  142.0117  166.6860 C.ar    1  UNL1        0.0158
     32 C         139.6426  142.0295  165.3521 C.ar    1  UNL1        0.0159
     33 N         140.7995  140.8434  168.9584 N.pl3   1  UNL1       -0.3047
     34 C         142.0437  140.0280  169.1510 C.3     1  UNL1        0.1079
     35 C         142.7295  140.0101  170.4849 C.3     1  UNL1        0.0903
     36 N         142.1712  140.8077  171.6261 N.3     1  UNL1       -0.2946
     37 C         140.9271  141.6231  171.4334 C.3     1  UNL1        0.0903
     38 C         140.2412  141.6410  170.0995 C.3     1  UNL1        0.1079
     39 H         142.9039  141.4535  171.9202 H       1  UNL1        0.1233
@<TRIPOS>BOND
     1    12    13    1
     2    13    14   ar
     3    14    15   ar
     4    15    16   ar
     5    16     7    1
     6     7     8   ar
     7     8     9   ar
     8     9    19    1
     9    19    20    1
    10    20    21    1
    11    21    22    1
    12    22    23    1
    13    23    24    1
    14     9    10   ar
    15    10    11   ar
    16    11     1    1
    17     1     2   ar
    18     2     3   ar
    19     3     4   ar
    20     4     5   ar
    21     5    25    1
    22    25    27    1
    23    27    28   ar
    24    28    29   ar
    25    29    30   ar
    26    30    33    1
    27    33    34    1
    28    34    35    1
    29    35    36    1
    30    36    37    1
    31    37    38    1
    32    30    31   ar
    33    31    32   ar
    34     5     6   ar
    35    16    17   ar
    36    17    18   ar
    37    18    13   ar
    38    11     7   ar
    39     6     1   ar
    40    24    19    1
    41    32    27   ar
    42    38    33    1
    43    25    26    1
    44    36    39    1
@<TRIPOS>MOLECULE
*****
 39 44 0 0 0
SMALL
GASTEIGER

@<TRIPOS>ATOM
      1 C         139.0386  140.6481  161.0746 C.ar    1  UNL1        0.0932
      2 C         137.7962  139.8526  160.8030 C.ar    1  UNL1        0.0405
      3 C         137.5846  138.5350  161.4880 C.ar    1  UNL1        0.1034
      4 N         138.6154  138.0129  162.4444 N.ar    1  UNL1       -0.2120
      5 C         139.8577  138.8084  162.7160 C.ar    1  UNL1        0.2207
      6 N         140.0693  140.1260  162.0310 N.ar    1  UNL1       -0.2130
      7 C         139.4103  143.2952  161.0656 C.ar    1  UNL1        0.0907
      8 N         139.5978  144.3363  160.0022 N.ar    1  UNL1       -0.2240
      9 C         139.5535  143.6503  158.6689 C.ar    1  UNL1        0.1632
     10 S         139.3386  142.1852  158.9084 S.2     1  UNL1       -0.0500
     11 C         139.2501  141.9658  160.3896 C.ar    1  UNL1        0.0674
     12 F         139.3173  144.2761  166.9842 F       1  UNL1       -0.2042
     13 C         139.3405  144.0309  165.5045 C.ar    1  UNL1        0.1401
     14 C         140.6219  143.6417  164.8288 C.ar    1  UNL1        0.0297
     15 C         140.6452  143.3965  163.3492 C.ar    1  UNL1        0.0038
     16 C         139.3870  143.5404  162.5453 C.ar    1  UNL1        0.0184
     17 C         138.1057  143.9296  163.2210 C.ar    1  UNL1        0.0038
     18 C         138.0824  144.1748  164.7006 C.ar    1  UNL1        0.0297
     19 N         139.6986  144.3131  157.3312 N.pl3   1  UNL1       -0.2830
     20 C         139.2964  143.5822  156.0846 C.3     1  UNL1        0.1247
     21 C         139.4415  144.2450  154.7468 C.3     1  UNL1        0.1636
     22 O         139.9888  145.6386  154.6556 O.3     1  UNL1       -0.3501
     23 C         140.3910  146.3694  155.9022 C.3     1  UNL1        0.1636
     24 C         140.2459  145.7067  157.2400 C.3     1  UNL1        0.1247
     25 N         140.8885  138.2863  163.6724 N.pl3   1  UNL1       -0.2825
     26 H         141.4314  137.5013  163.4309 H       1  UNL1        0.1551
     27 C         141.0923  138.9602  164.9970 C.ar    1  UNL1        0.0505
     28 C         139.9996  139.8022  165.5859 C.ar    1  UNL1        0.0159
     29 C         140.2032  140.4762  166.9105 C.ar    1  UNL1        0.0158
     30 C         141.4996  140.3080  167.6461 C.ar    1  UNL1        0.0480
     31 C         142.5924  139.4659  167.0571 C.ar    1  UNL1        0.0158
     32 C         142.3886  138.7920  165.7325 C.ar    1  UNL1        0.0159
     33 N         141.7033  140.9819  168.9706 N.pl3   1  UNL1       -0.3047
     34 C         142.6605  142.1307  169.0881 C.3     1  UNL1        0.1079
     35 C         142.8642  142.8046  170.4127 C.3     1  UNL1        0.0903
     36 N         142.1107  142.3296  171.6196 N.3     1  UNL1       -0.2946
     37 C         141.1535  141.1808  171.5020 C.3     1  UNL1        0.0903
     38 C         140.9498  140.5069  170.1775 C.3     1  UNL1        0.1079
     39 H         141.5742  143.1259  171.9639 H       1  UNL1        0.1233
@<TRIPOS>BOND
     1    12    13    1
     2    13    14   ar
     3    14    15   ar
     4    15    16   ar
     5    16     7    1
     6     7     8   ar
     7     8     9   ar
     8     9    19    1
     9    19    20    1
    10    20    21    1
    11    21    22    1
    12    22    23    1
    13    23    24    1
    14     9    10   ar
    15    10    11   ar
    16    11     1    1
    17     1     2   ar
    18     2     3   ar
    19     3     4   ar
    20     4     5   ar
    21     5    25    1
    22    25    27    1
    23    27    28   ar
    24    28    29   ar
    25    29    30   ar
    26    30    33    1
    27    33    34    1
    28    34    35    1
    29    35    36    1
    30    36    37    1
    31    37    38    1
    32    30    31   ar
    33    31    32   ar
    34     5     6   ar
    35    16    17   ar
    36    17    18   ar
    37    18    13   ar
    38    11     7   ar
    39     6     1   ar
    40    24    19    1
    41    32    27   ar
    42    38    33    1
    43    25    26    1
    44    36    39    1
@<TRIPOS>MOLECULE
*****
 39 44 0 0 0
SMALL
GASTEIGER

@<TRIPOS>ATOM
      1 C         139.1281  140.8019  160.9224 C.ar    1  UNL1        0.0932
      2 C         137.8535  140.0297  160.7507 C.ar    1  UNL1        0.0405
      3 C         137.6400  138.7557  161.5131 C.ar    1  UNL1        0.1034
      4 N         138.7009  138.2538  162.4471 N.ar    1  UNL1       -0.2120
      5 C         139.9754  139.0259  162.6188 C.ar    1  UNL1        0.2207
      6 N         140.1889  140.3000  161.8565 N.ar    1  UNL1       -0.2130
      7 C         139.4070  143.4546  160.7476 C.ar    1  UNL1        0.0907
      8 N         139.6330  144.4257  159.6269 N.ar    1  UNL1       -0.2240
      9 C         139.7073  143.6473  158.3469 C.ar    1  UNL1        0.1632
     10 S         139.5272  142.1951  158.6764 S.2     1  UNL1       -0.0500
     11 C         139.3416  142.0760  160.1601 C.ar    1  UNL1        0.0674
     12 F         138.8604  144.8411  166.5595 F       1  UNL1       -0.2042
     13 C         138.9970  144.4945  165.1065 C.ar    1  UNL1        0.1401
     14 C         137.7823  144.1329  164.3043 C.ar    1  UNL1        0.0297
     15 C         137.9190  143.7862  162.8513 C.ar    1  UNL1        0.0038
     16 C         139.2703  143.8012  162.2006 C.ar    1  UNL1        0.0184
     17 C         140.4851  144.1628  163.0028 C.ar    1  UNL1        0.0038
     18 C         140.3484  144.5095  164.4558 C.ar    1  UNL1        0.0297
     19 N         139.9237  144.2205  156.9777 N.pl3   1  UNL1       -0.2830
     20 C         140.3688  145.6445  156.8226 C.3     1  UNL1        0.1247
     21 C         140.5852  146.2178  155.4535 C.3     1  UNL1        0.1636
     22 O         140.3566  145.3670  154.2395 O.3     1  UNL1       -0.3501
     23 C         139.9116  143.9430  154.3946 C.3     1  UNL1        0.1636
     24 C         139.6951  143.3697  155.7637 C.3     1  UNL1        0.1247
     25 N         141.0363  138.5240  163.5529 N.pl3   1  UNL1       -0.2825
     26 H         141.6175  137.7770  163.2819 H       1  UNL1        0.1551
     27 C         141.2118  139.1603  164.8999 C.ar    1  UNL1        0.0505
     28 C         142.3811  138.7836  165.7607 C.ar    1  UNL1        0.0159
     29 C         142.5567  139.4199  167.1077 C.ar    1  UNL1        0.0158
     30 C         141.5630  140.4329  167.5939 C.ar    1  UNL1        0.0480
     31 C         140.3937  140.8096  166.7330 C.ar    1  UNL1        0.0158
     32 C         140.2182  140.1733  165.3860 C.ar    1  UNL1        0.0159
     33 N         141.7385  141.0692  168.9408 N.pl3   1  UNL1       -0.3047
     34 C         142.6613  142.2406  169.1023 C.3     1  UNL1        0.1079
     35 C         142.8368  142.8769  170.4493 C.3     1  UNL1        0.0903
     36 N         142.0895  142.3417  171.6347 N.3     1  UNL1       -0.2946
     37 C         141.1667  141.1703  171.4732 C.3     1  UNL1        0.0903
     38 C         140.9912  140.5340  170.1262 C.3     1  UNL1        0.1079
     39 H         141.5280  143.1107  172.0004 H       1  UNL1        0.1233
@<TRIPOS>BOND
     1    12    13    1
     2    13    14   ar
     3    14    15   ar
     4    15    16   ar
     5    16     7    1
     6     7     8   ar
     7     8     9   ar
     8     9    19    1
     9    19    20    1
    10    20    21    1
    11    21    22    1
    12    22    23    1
    13    23    24    1
    14     9    10   ar
    15    10    11   ar
    16    11     1    1
    17     1     2   ar
    18     2     3   ar
    19     3     4   ar
    20     4     5   ar
    21     5    25    1
    22    25    27    1
    23    27    28   ar
    24    28    29   ar
    25    29    30   ar
    26    30    33    1
    27    33    34    1
    28    34    35    1
    29    35    36    1
    30    36    37    1
    31    37    38    1
    32    30    31   ar
    33    31    32   ar
    34     5     6   ar
    35    16    17   ar
    36    17    18   ar
    37    18    13   ar
    38    11     7   ar
    39     6     1   ar
    40    24    19    1
    41    32    27   ar
    42    38    33    1
    43    25    26    1
    44    36    39    1
@<TRIPOS>MOLECULE
*****
 39 44 0 0 0
SMALL
GASTEIGER

@<TRIPOS>ATOM
      1 C         142.7341  140.0914  160.5743 C.ar    1  UNL1        0.0932
      2 C         142.8533  138.6046  160.4148 C.ar    1  UNL1        0.0405
      3 C         141.9557  137.6921  161.1970 C.ar    1  UNL1        0.1034
      4 N         140.9390  138.2663  162.1386 N.ar    1  UNL1       -0.2120
      5 C         140.8199  139.7531  162.2980 C.ar    1  UNL1        0.2207
      6 N         141.7175  140.6656  161.5159 N.ar    1  UNL1       -0.2130
      7 C         144.4564  142.1237  160.3542 C.ar    1  UNL1        0.0907
      8 N         145.1965  142.7687  159.2201 N.ar    1  UNL1       -0.2240
      9 C         144.8292  142.0475  157.9571 C.ar    1  UNL1        0.1632
     10 S         143.8621  140.9568  158.3107 S.2     1  UNL1       -0.0500
     11 C         143.6317  141.0039  159.7922 C.ar    1  UNL1        0.0674
     12 F         144.7444  143.7395  166.1254 F       1  UNL1       -0.2042
     13 C         144.6724  143.3355  164.6826 C.ar    1  UNL1        0.1401
     14 C         145.3485  142.0787  164.2210 C.ar    1  UNL1        0.0297
     15 C         145.2766  141.6748  162.7782 C.ar    1  UNL1        0.0038
     16 C         144.5284  142.5277  161.7970 C.ar    1  UNL1        0.0184
     17 C         143.8523  143.7845  162.2586 C.ar    1  UNL1        0.0038
     18 C         143.9243  144.1885  163.7014 C.ar    1  UNL1        0.0297
     19 N         145.3395  142.3618  156.5821 N.pl3   1  UNL1       -0.2830
     20 C         144.3763  142.5238  155.4436 C.3     1  UNL1        0.1247
     21 C         144.8866  142.8381  154.0685 C.3     1  UNL1        0.1636
     22 O         146.3599  142.9904  153.8319 O.3     1  UNL1       -0.3501
     23 C         147.3230  142.8285  154.9704 C.3     1  UNL1        0.1636
     24 C         146.8129  142.5142  156.3454 C.3     1  UNL1        0.1247
     25 N         139.8032  140.3273  163.2396 N.pl3   1  UNL1       -0.2825
     26 H         138.8837  140.4933  162.9297 H       1  UNL1        0.1551
     27 C         140.1876  140.6486  164.6535 C.ar    1  UNL1        0.0505
     28 C         139.4918  139.9658  165.7935 C.ar    1  UNL1        0.0159
     29 C         139.8762  140.2870  167.2075 C.ar    1  UNL1        0.0158
     30 C         140.9563  141.2911  167.4813 C.ar    1  UNL1        0.0480
     31 C         141.6522  141.9740  166.3413 C.ar    1  UNL1        0.0158
     32 C         141.2678  141.6527  164.9274 C.ar    1  UNL1        0.0159
     33 N         141.3407  141.6124  168.8952 N.pl3   1  UNL1       -0.3047
     34 C         142.4281  142.6087  169.1688 C.3     1  UNL1        0.1079
     35 C         142.8125  142.9300  170.5826 C.3     1  UNL1        0.0903
     36 N         142.1095  142.2550  171.7229 N.3     1  UNL1       -0.2946
     37 C         141.0221  141.2587  171.4493 C.3     1  UNL1        0.0903
     38 C         140.6377  140.9374  170.0354 C.3     1  UNL1        0.1079
     39 H         141.6959  142.9933  172.2923 H       1  UNL1        0.1233
@<TRIPOS>BOND
     1    12    13    1
     2    13    14   ar
     3    14    15   ar
     4    15    16   ar
     5    16     7    1
     6     7     8   ar
     7     8     9   ar
     8     9    19    1
     9    19    20    1
    10    20    21    1
    11    21    22    1
    12    22    23    1
    13    23    24    1
    14     9    10   ar
    15    10    11   ar
    16    11     1    1
    17     1     2   ar
    18     2     3   ar
    19     3     4   ar
    20     4     5   ar
    21     5    25    1
    22    25    27    1
    23    27    28   ar
    24    28    29   ar
    25    29    30   ar
    26    30    33    1
    27    33    34    1
    28    34    35    1
    29    35    36    1
    30    36    37    1
    31    37    38    1
    32    30    31   ar
    33    31    32   ar
    34     5     6   ar
    35    16    17   ar
    36    17    18   ar
    37    18    13   ar
    38    11     7   ar
    39     6     1   ar
    40    24    19    1
    41    32    27   ar
    42    38    33    1
    43    25    26    1
    44    36    39    1
@<TRIPOS>MOLECULE
*****
 39 44 0 0 0
SMALL
GASTEIGER

@<TRIPOS>ATOM
      1 C         139.9097  140.7780  160.6216 C.ar    1  UNL1        0.0932
      2 C         140.7266  139.7147  159.9489 C.ar    1  UNL1        0.0405
      3 C         140.8056  138.3404  160.5446 C.ar    1  UNL1        0.1034
      4 N         140.0677  138.0292  161.8130 N.ar    1  UNL1       -0.2120
      5 C         139.2510  139.0924  162.4856 C.ar    1  UNL1        0.2207
      6 N         139.1720  140.4667  161.8899 N.ar    1  UNL1       -0.2130
      7 C         139.7305  143.4397  160.7891 C.ar    1  UNL1        0.0907
      8 N         139.6759  144.5636  159.7972 N.ar    1  UNL1       -0.2240
      9 C         139.7425  143.9708  158.4209 C.ar    1  UNL1        0.1632
     10 S         139.8381  142.4806  158.5622 S.2     1  UNL1       -0.0500
     11 C         139.8307  142.1523  160.0258 C.ar    1  UNL1        0.0674
     12 F         139.5750  143.9960  166.7613 F       1  UNL1       -0.2042
     13 C         139.6139  143.8569  165.2682 C.ar    1  UNL1        0.1401
     14 C         138.3826  144.1321  164.4570 C.ar    1  UNL1        0.0297
     15 C         138.4214  143.9930  162.9640 C.ar    1  UNL1        0.0038
     16 C         139.6916  143.5788  162.2822 C.ar    1  UNL1        0.0184
     17 C         140.9230  143.3036  163.0933 C.ar    1  UNL1        0.0038
     18 C         140.8841  143.4427  164.5864 C.ar    1  UNL1        0.0297
     19 N         139.7177  144.7343  157.1300 N.pl3   1  UNL1       -0.2830
     20 C         139.2483  144.0655  155.8721 C.3     1  UNL1        0.1247
     21 C         139.2235  144.8290  154.5811 C.3     1  UNL1        0.1636
     22 O         139.6680  146.2611  154.5481 O.3     1  UNL1       -0.3501
     23 C         140.1375  146.9299  155.8061 C.3     1  UNL1        0.1636
     24 C         140.1623  146.1665  157.0970 C.3     1  UNL1        0.1247
     25 N         138.5131  138.7812  163.7540 N.pl3   1  UNL1       -0.2825
     26 H         137.6236  138.3612  163.7156 H       1  UNL1        0.1551
     27 C         139.1307  139.1099  165.0809 C.ar    1  UNL1        0.0505
     28 C         140.6167  139.2794  165.1951 C.ar    1  UNL1        0.0159
     29 C         141.2343  139.6081  166.5220 C.ar    1  UNL1        0.0158
     30 C         140.3659  139.7675  167.7346 C.ar    1  UNL1        0.0480
     31 C         138.8798  139.5980  167.6203 C.ar    1  UNL1        0.0158
     32 C         138.2623  139.2692  166.2935 C.ar    1  UNL1        0.0159
     33 N         140.9835  140.0962  169.0614 N.pl3   1  UNL1       -0.3047
     34 C         140.1871  140.8329  170.0973 C.3     1  UNL1        0.1079
     35 C         140.8047  141.1616  171.4242 C.3     1  UNL1        0.0903
     36 N         142.2185  140.7537  171.7151 N.3     1  UNL1       -0.2946
     37 C         143.0148  140.0170  170.6792 C.3     1  UNL1        0.0903
     38 C         142.3973  139.6883  169.3524 C.3     1  UNL1        0.1079
     39 H         142.1887  140.1578  172.5424 H       1  UNL1        0.1233
@<TRIPOS>BOND
     1    12    13    1
     2    13    14   ar
     3    14    15   ar
     4    15    16   ar
     5    16     7    1
     6     7     8   ar
     7     8     9   ar
     8     9    19    1
     9    19    20    1
    10    20    21    1
    11    21    22    1
    12    22    23    1
    13    23    24    1
    14     9    10   ar
    15    10    11   ar
    16    11     1    1
    17     1     2   ar
    18     2     3   ar
    19     3     4   ar
    20     4     5   ar
    21     5    25    1
    22    25    27    1
    23    27    28   ar
    24    28    29   ar
    25    29    30   ar
    26    30    33    1
    27    33    34    1
    28    34    35    1
    29    35    36    1
    30    36    37    1
    31    37    38    1
    32    30    31   ar
    33    31    32   ar
    34     5     6   ar
    35    16    17   ar
    36    17    18   ar
    37    18    13   ar
    38    11     7   ar
    39     6     1   ar
    40    24    19    1
    41    32    27   ar
    42    38    33    1
    43    25    26    1
    44    36    39    1
@<TRIPOS>MOLECULE
*****
 39 44 0 0 0
SMALL
GASTEIGER

@<TRIPOS>ATOM
      1 C         142.2803  142.0969  160.7325 C.ar    1  UNL1        0.0932
      2 C         143.3955  142.8982  160.1288 C.ar    1  UNL1        0.0405
      3 C         144.8005  142.7190  160.6228 C.ar    1  UNL1        0.1034
      4 N         145.0903  141.7385  161.7203 N.ar    1  UNL1       -0.2120
      5 C         143.9751  140.9373  162.3240 C.ar    1  UNL1        0.2207
      6 N         142.5702  141.1165  161.8300 N.ar    1  UNL1       -0.2130
      7 C         139.6912  142.6684  161.0716 C.ar    1  UNL1        0.0907
      8 N         138.4919  142.7292  160.1727 N.ar    1  UNL1       -0.2240
      9 C         138.9348  142.3745  158.7842 C.ar    1  UNL1        0.1632
     10 S         140.4079  142.0944  158.8249 S.2     1  UNL1       -0.0500
     11 C         140.8753  142.2761  160.2386 C.ar    1  UNL1        0.0674
     12 F         139.7428  143.7965  166.9644 F       1  UNL1       -0.2042
     13 C         139.7299  143.5145  165.4912 C.ar    1  UNL1        0.1401
     14 C         139.6468  142.1000  164.9990 C.ar    1  UNL1        0.0297
     15 C         139.6339  141.8180  163.5258 C.ar    1  UNL1        0.0038
     16 C         139.7041  142.9504  162.5448 C.ar    1  UNL1        0.0184
     17 C         139.7873  144.3649  163.0369 C.ar    1  UNL1        0.0038
     18 C         139.8002  144.6469  164.5101 C.ar    1  UNL1        0.0297
     19 N         138.0585  142.3109  157.5685 N.pl3   1  UNL1       -0.2830
     20 C         138.1135  143.4073  156.5462 C.3     1  UNL1        0.1247
     21 C         137.2372  143.3438  155.3305 C.3     1  UNL1        0.1636
     22 O         136.3060  142.1840  155.1370 O.3     1  UNL1       -0.3501
     23 C         136.2510  141.0876  156.1592 C.3     1  UNL1        0.1636
     24 C         137.1272  141.1511  157.3749 C.3     1  UNL1        0.1247
     25 N         144.2650  139.9568  163.4215 N.pl3   1  UNL1       -0.2825
     26 H         144.8375  139.1755  163.2452 H       1  UNL1        0.1551
     27 C         143.6825  140.1666  164.7878 C.ar    1  UNL1        0.0505
     28 C         143.2848  138.9858  165.6230 C.ar    1  UNL1        0.0159
     29 C         142.7022  139.1956  166.9893 C.ar    1  UNL1        0.0158
     30 C         142.5174  140.5862  167.5204 C.ar    1  UNL1        0.0480
     31 C         142.9152  141.7671  166.6851 C.ar    1  UNL1        0.0158
     32 C         143.4977  141.5572  165.3189 C.ar    1  UNL1        0.0159
     33 N         141.9349  140.7960  168.8866 N.pl3   1  UNL1       -0.3047
     34 C         140.8379  139.8999  169.3799 C.3     1  UNL1        0.1079
     35 C         140.2554  140.1097  170.7461 C.3     1  UNL1        0.0903
     36 N         140.7700  141.2157  171.6191 N.3     1  UNL1       -0.2946
     37 C         141.8670  142.1118  171.1259 C.3     1  UNL1        0.0903
     38 C         142.4495  141.9020  169.7596 C.3     1  UNL1        0.1079
     39 H         141.1088  140.7802  172.4770 H       1  UNL1        0.1233
@<TRIPOS>BOND
     1    12    13    1
     2    13    14   ar
     3    14    15   ar
     4    15    16   ar
     5    16     7    1
     6     7     8   ar
     7     8     9   ar
     8     9    19    1
     9    19    20    1
    10    20    21    1
    11    21    22    1
    12    22    23    1
    13    23    24    1
    14     9    10   ar
    15    10    11   ar
    16    11     1    1
    17     1     2   ar
    18     2     3   ar
    19     3     4   ar
    20     4     5   ar
    21     5    25    1
    22    25    27    1
    23    27    28   ar
    24    28    29   ar
    25    29    30   ar
    26    30    33    1
    27    33    34    1
    28    34    35    1
    29    35    36    1
    30    36    37    1
    31    37    38    1
    32    30    31   ar
    33    31    32   ar
    34     5     6   ar
    35    16    17   ar
    36    17    18   ar
    37    18    13   ar
    38    11     7   ar
    39     6     1   ar
    40    24    19    1
    41    32    27   ar
    42    38    33    1
    43    25    26    1
    44    36    39    1
@<TRIPOS>MOLECULE
*****
 39 44 0 0 0
SMALL
GASTEIGER

@<TRIPOS>ATOM
      1 C         140.6321  141.2381  159.7809 C.ar    1  UNL1        0.0932
      2 C         140.7201  142.6200  159.2042 C.ar    1  UNL1        0.0405
      3 C         139.9011  143.7313  159.7911 C.ar    1  UNL1        0.1034
      4 N         138.9941  143.4606  160.9547 N.ar    1  UNL1       -0.2120
      5 C         138.9061  142.0787  161.5314 C.ar    1  UNL1        0.2207
      6 N         139.7251  140.9675  160.9445 N.ar    1  UNL1       -0.2130
      7 C         142.8113  139.6952  159.6561 C.ar    1  UNL1        0.0907
      8 N         143.2545  138.5538  158.7896 N.ar    1  UNL1       -0.2240
      9 C         142.1683  138.2801  157.7921 C.ar    1  UNL1        0.1632
     10 S         141.0537  139.2523  158.0420 S.2     1  UNL1       -0.0500
     11 C         141.4511  140.1269  159.1940 C.ar    1  UNL1        0.0674
     12 F         145.9313  142.1099  164.1766 F       1  UNL1       -0.2042
     13 C         145.1513  141.5062  163.0465 C.ar    1  UNL1        0.1401
     14 C         144.5973  140.1182  163.1748 C.ar    1  UNL1        0.0297
     15 C         143.8173  139.5145  162.0447 C.ar    1  UNL1        0.0038
     16 C         143.5913  140.2989  160.7862 C.ar    1  UNL1        0.0184
     17 C         144.1452  141.6869  160.6579 C.ar    1  UNL1        0.0038
     18 C         144.9252  142.2905  161.7881 C.ar    1  UNL1        0.0297
     19 N         142.1924  137.2202  156.7309 N.pl3   1  UNL1       -0.2830
     20 C         140.9057  136.6879  156.1732 C.3     1  UNL1        0.1247
     21 C         140.9298  135.6280  155.1120 C.3     1  UNL1        0.1636
     22 O         142.2406  135.1005  154.6086 O.3     1  UNL1       -0.3501
     23 C         143.5272  135.6328  155.1663 C.3     1  UNL1        0.1636
     24 C         143.5032  136.6927  156.2274 C.3     1  UNL1        0.1247
     25 N         137.9991  141.8080  162.6950 N.pl3   1  UNL1       -0.2825
     26 H         137.0231  141.8749  162.5844 H       1  UNL1        0.1551
     27 C         138.5790  141.4354  164.0272 C.ar    1  UNL1        0.0505
     28 C         139.5434  142.3592  164.7103 C.ar    1  UNL1        0.0159
     29 C         140.1234  141.9866  166.0425 C.ar    1  UNL1        0.0158
     30 C         139.7390  140.6901  166.6917 C.ar    1  UNL1        0.0480
     31 C         138.7747  139.7662  166.0086 C.ar    1  UNL1        0.0158
     32 C         138.1947  140.1389  164.6764 C.ar    1  UNL1        0.0159
     33 N         140.3190  140.3175  168.0239 N.pl3   1  UNL1       -0.3047
     34 C         141.7502  139.8793  168.1226 C.3     1  UNL1        0.1079
     35 C         142.3301  139.5067  169.4548 C.3     1  UNL1        0.0903
     36 N         141.4790  139.5722  170.6882 N.3     1  UNL1       -0.2946
     37 C         140.0478  140.0103  170.5894 C.3     1  UNL1        0.0903
     38 C         139.4678  140.3829  169.2572 C.3     1  UNL1        0.1079
     39 H         141.9404  140.2162  171.3306 H       1  UNL1        0.1233
@<TRIPOS>BOND
     1    12    13    1
     2    13    14   ar
     3    14    15   ar
     4    15    16   ar
     5    16     7    1
     6     7     8   ar
     7     8     9   ar
     8     9    19    1
     9    19    20    1
    10    20    21    1
    11    21    22    1
    12    22    23    1
    13    23    24    1
    14     9    10   ar
    15    10    11   ar
    16    11     1    1
    17     1     2   ar
    18     2     3   ar
    19     3     4   ar
    20     4     5   ar
    21     5    25    1
    22    25    27    1
    23    27    28   ar
    24    28    29   ar
    25    29    30   ar
    26    30    33    1
    27    33    34    1
    28    34    35    1
    29    35    36    1
    30    36    37    1
    31    37    38    1
    32    30    31   ar
    33    31    32   ar
    34     5     6   ar
    35    16    17   ar
    36    17    18   ar
    37    18    13   ar
    38    11     7   ar
    39     6     1   ar
    40    24    19    1
    41    32    27   ar
    42    38    33    1
    43    25    26    1
    44    36    39    1
