@<TRIPOS>MOLECULE
*****
 38 41 0 0 0
SMALL
GASTEIGER

@<TRIPOS>ATOM
      1 N         141.3810  137.8190  156.8164 N.3     1  UNL1       -0.2711
      2 C         141.1779  138.5344  158.1192 C.3     1  UNL1        0.0933
      3 C         140.6162  139.7147  157.3835 C.3     1  UNL1        0.1035
      4 C         140.8192  138.9994  156.0807 C.3     1  UNL1        0.0933
      5 C         143.0033  133.7977  155.6135 C.3     1  UNL1        0.0255
      6 C         141.8413  134.3899  154.8725 C.3     1  UNL1        0.0058
      7 C         141.3006  135.7303  155.2735 C.3     1  UNL1        0.0163
      8 C         141.9217  136.4786  156.4155 C.3     1  UNL1        0.0576
      9 C         143.0837  135.8865  157.1565 C.3     1  UNL1        0.0163
     10 C         143.6245  134.5460  156.7555 C.3     1  UNL1        0.0058
     11 C         144.6257  129.7764  154.4106 C.ar    1  UNL1        0.2203
     12 N         145.0728  130.4123  155.6934 N.ar    1  UNL1       -0.2124
     13 C         144.5320  131.7528  156.0944 C.ar    1  UNL1        0.0991
     14 C         143.5441  132.4573  155.2125 C.ar    1  UNL1        0.0159
     15 C         143.0971  131.8214  153.9297 C.ar    1  UNL1        0.0991
     16 N         143.6379  130.4810  153.5287 N.ar    1  UNL1       -0.2124
     17 C         145.3914  128.1210  152.5605 C.3     1  UNL1        0.1151
     18 N         145.1665  128.4360  154.0096 N.pl3   1  UNL1       -0.2747
     19 C         145.4824  127.4106  155.0578 C.3     1  UNL1        0.1151
     20 N         140.0754  141.0551  157.7845 N.am    1  UNL1       -0.3018
     21 C         138.6672  141.1760  158.2867 C.2     1  UNL1        0.2426
     22 O         137.7997  139.9564  158.3880 O.2     1  UNL1       -0.2733
     23 H         140.6447  141.8555  157.7180 H       1  UNL1        0.1495
     24 C         138.1264  142.5164  158.6877 C.3     1  UNL1        0.1759
     25 N         138.6138  143.1768  159.9433 N.am    1  UNL1       -0.2931
     26 C         138.2322  142.6172  161.2817 C.2     1  UNL1        0.2462
     27 O         137.3632  141.3972  161.3644 O.2     1  UNL1       -0.2701
     28 H         139.1841  143.9774  159.8890 H       1  UNL1        0.1502
     29 C         138.7195  143.2774  162.5373 C.ar    1  UNL1        0.0533
     30 C         137.7488  143.6276  163.6259 C.ar    1  UNL1        0.0045
     31 C         138.2361  144.2878  164.8815 C.ar    1  UNL1        0.0001
     32 C         139.6942  144.5979  165.0485 C.ar    1  UNL1        0.0039
     33 C         140.6649  144.2477  163.9600 C.ar    1  UNL1        0.0716
     34 C         140.1776  143.5875  162.7043 C.ar    1  UNL1        0.0084
     35 C         142.1230  144.5578  164.1270 C.3     1  UNL1        0.4186
     36 F         143.5810  144.8679  164.2940 F       1  UNL1       -0.1659
     37 F         141.8991  145.9228  163.5469 F       1  UNL1       -0.1659
     38 F         142.3468  143.1927  164.7071 F       1  UNL1       -0.1659
@<TRIPOS>BOND
     1    17    18    1
     2    18    19    1
     3    18    11    1
     4    11    12   ar
     5    12    13   ar
     6    13    14   ar
     7     5    14    1
     8     5     6    1
     9     6     7    1
    10     7     8    1
    11     8     1    1
    12     1     2    1
    13     2     3    1
    14     3    20    1
    15    20    21   am
    16    21    22    2
    17    21    24    1
    18    24    25    1
    19    25    26   am
    20    26    27    2
    21    26    29    1
    22    29    30   ar
    23    30    31   ar
    24    31    32   ar
    25    32    33   ar
    26    33    35    1
    27    35    36    1
    28    35    37    1
    29    35    38    1
    30    33    34   ar
    31     3     4    1
    32     8     9    1
    33     9    10    1
    34    14    15   ar
    35    15    16   ar
    36    16    11   ar
    37    10     5    1
    38     4     1    1
    39    34    29   ar
    40    20    23    1
    41    25    28    1
@<TRIPOS>MOLECULE
*****
 38 41 0 0 0
SMALL
GASTEIGER

@<TRIPOS>ATOM
      1 N         141.3709  137.8624  157.0549 N.3     1  UNL1       -0.2711
      2 C         141.1478  138.4932  158.3974 C.3     1  UNL1        0.0933
      3 C         140.6367  139.7349  157.7289 C.3     1  UNL1        0.1035
      4 C         140.8597  139.1041  156.3864 C.3     1  UNL1        0.0933
      5 C         142.9285  133.8901  155.6249 C.3     1  UNL1        0.0255
      6 C         143.6666  134.6458  156.6898 C.3     1  UNL1        0.0058
      7 C         143.1474  135.9699  157.1665 C.3     1  UNL1        0.0163
      8 C         141.8901  136.5383  156.5782 C.3     1  UNL1        0.0576
      9 C         141.1520  135.7826  155.5133 C.3     1  UNL1        0.0163
     10 C         141.6712  134.4584  155.0367 C.3     1  UNL1        0.0058
     11 C         144.4861  129.9177  154.1950 C.ar    1  UNL1        0.2203
     12 N         143.4695  130.6618  153.3809 N.ar    1  UNL1       -0.2124
     13 C         142.9503  131.9859  153.8575 C.ar    1  UNL1        0.0991
     14 C         143.4477  132.5659  155.1483 C.ar    1  UNL1        0.0159
     15 C         144.4642  131.8218  155.9624 C.ar    1  UNL1        0.0991
     16 N         144.9834  130.4977  155.4858 N.ar    1  UNL1       -0.2124
     17 C         144.7981  128.1760  152.2927 C.3     1  UNL1        0.1151
     18 N         145.0052  128.5936  153.7184 N.pl3   1  UNL1       -0.2747
     19 C         145.7315  127.6872  154.6674 C.3     1  UNL1        0.1151
     20 N         140.1175  141.0590  158.2056 N.am    1  UNL1       -0.3018
     21 C         138.7011  141.1811  158.6839 C.2     1  UNL1        0.2426
     22 O         137.8038  139.9790  158.6856 O.2     1  UNL1       -0.2733
     23 H         140.7064  141.8480  158.2044 H       1  UNL1        0.1495
     24 C         138.1819  142.5052  159.1605 C.3     1  UNL1        0.1759
     25 N         138.6298  143.0546  160.4826 N.am    1  UNL1       -0.2931
     26 C         138.1885  142.3968  161.7564 C.2     1  UNL1        0.2462
     27 O         137.2994  141.1896  161.7082 O.2     1  UNL1       -0.2701
     28 H         139.2134  143.8468  160.5142 H       1  UNL1        0.1502
     29 C         138.6364  142.9461  163.0783 C.ar    1  UNL1        0.0533
     30 C         137.9517  144.1460  163.6627 C.ar    1  UNL1        0.0045
     31 C         138.3996  144.6953  164.9847 C.ar    1  UNL1        0.0001
     32 C         139.5321  144.0448  165.7223 C.ar    1  UNL1        0.0039
     33 C         140.2168  142.8449  165.1380 C.ar    1  UNL1        0.0716
     34 C         139.7690  142.2955  163.8160 C.ar    1  UNL1        0.0084
     35 C         141.3494  142.1944  165.8757 C.3     1  UNL1        0.4186
     36 F         142.4819  141.5438  166.6133 F       1  UNL1       -0.1659
     37 F         141.7699  141.4977  164.6156 F       1  UNL1       -0.1659
     38 F         140.9288  142.8910  167.1358 F       1  UNL1       -0.1659
@<TRIPOS>BOND
     1    17    18    1
     2    18    19    1
     3    18    11    1
     4    11    12   ar
     5    12    13   ar
     6    13    14   ar
     7     5    14    1
     8     5     6    1
     9     6     7    1
    10     7     8    1
    11     8     1    1
    12     1     2    1
    13     2     3    1
    14     3    20    1
    15    20    21   am
    16    21    22    2
    17    21    24    1
    18    24    25    1
    19    25    26   am
    20    26    27    2
    21    26    29    1
    22    29    30   ar
    23    30    31   ar
    24    31    32   ar
    25    32    33   ar
    26    33    35    1
    27    35    36    1
    28    35    37    1
    29    35    38    1
    30    33    34   ar
    31     3     4    1
    32     8     9    1
    33     9    10    1
    34    14    15   ar
    35    15    16   ar
    36    16    11   ar
    37    10     5    1
    38     4     1    1
    39    34    29   ar
    40    20    23    1
    41    25    28    1
@<TRIPOS>MOLECULE
*****
 38 41 0 0 0
SMALL
GASTEIGER

@<TRIPOS>ATOM
      1 N         141.5726  137.5063  156.4752 N.3     1  UNL1       -0.2711
      2 C         141.4127  138.2463  157.7702 C.3     1  UNL1        0.0933
      3 C         140.8539  139.4240  157.0281 C.3     1  UNL1        0.1035
      4 C         141.0137  138.6841  155.7332 C.3     1  UNL1        0.0933
      5 C         143.0972  133.4381  155.3023 C.3     1  UNL1        0.0255
      6 C         143.9867  134.3849  156.0521 C.3     1  UNL1        0.0058
      7 C         143.4785  135.7409  156.4431 C.3     1  UNL1        0.0163
      8 C         142.0808  136.1502  156.0842 C.3     1  UNL1        0.0576
      9 C         141.1913  135.2034  155.3344 C.3     1  UNL1        0.0163
     10 C         141.6995  133.8474  154.9434 C.3     1  UNL1        0.0058
     11 C         144.6217  129.3700  154.1293 C.ar    1  UNL1        0.2203
     12 N         144.9407  129.9284  155.4845 N.ar    1  UNL1       -0.2124
     13 C         144.4325  131.2844  155.8754 C.ar    1  UNL1        0.0991
     14 C         143.6054  132.0821  154.9113 C.ar    1  UNL1        0.0159
     15 C         143.2864  131.5236  153.5562 C.ar    1  UNL1        0.0991
     16 N         143.7946  130.1676  153.1652 N.ar    1  UNL1       -0.2124
     17 C         144.5977  127.3393  152.5089 C.3     1  UNL1        0.1151
     18 N         145.1299  128.0139  153.7384 N.pl3   1  UNL1       -0.2747
     19 C         146.1703  127.3324  154.5769 C.3     1  UNL1        0.1151
     20 N         140.3457  140.7801  157.4191 N.am    1  UNL1       -0.3018
     21 C         138.8764  140.9992  157.6268 C.2     1  UNL1        0.2426
     22 O         137.9153  139.8622  157.4435 O.2     1  UNL1       -0.2733
     23 H         140.9765  141.5263  157.5394 H       1  UNL1        0.1495
     24 C         138.3683  142.3552  158.0178 C.3     1  UNL1        0.1759
     25 N         138.6019  142.8720  159.4065 N.am    1  UNL1       -0.2931
     26 C         139.9484  143.4104  159.7897 C.2     1  UNL1        0.2462
     27 O         141.0614  143.4321  158.7842 O.2     1  UNL1       -0.2701
     28 H         137.8714  142.8577  160.0664 H       1  UNL1        0.1502
     29 C         140.1821  143.9272  161.1783 C.ar    1  UNL1        0.0533
     30 C         141.5384  144.4325  161.5723 C.ar    1  UNL1        0.0045
     31 C         141.7720  144.9492  162.9609 C.ar    1  UNL1        0.0001
     32 C         140.6494  144.9607  163.9556 C.ar    1  UNL1        0.0039
     33 C         139.2931  144.4555  163.5618 C.ar    1  UNL1        0.0716
     34 C         139.0594  143.9387  162.1731 C.ar    1  UNL1        0.0084
     35 C         138.1705  144.4670  164.5565 C.3     1  UNL1        0.4186
     36 F         137.0478  144.4785  165.5513 F       1  UNL1       -0.1659
     37 F         138.9629  145.3841  165.4403 F       1  UNL1       -0.1659
     38 F         137.3780  143.5499  163.6728 F       1  UNL1       -0.1659
@<TRIPOS>BOND
     1    17    18    1
     2    18    19    1
     3    18    11    1
     4    11    12   ar
     5    12    13   ar
     6    13    14   ar
     7     5    14    1
     8     5     6    1
     9     6     7    1
    10     7     8    1
    11     8     1    1
    12     1     2    1
    13     2     3    1
    14     3    20    1
    15    20    21   am
    16    21    22    2
    17    21    24    1
    18    24    25    1
    19    25    26   am
    20    26    27    2
    21    26    29    1
    22    29    30   ar
    23    30    31   ar
    24    31    32   ar
    25    32    33   ar
    26    33    35    1
    27    35    36    1
    28    35    37    1
    29    35    38    1
    30    33    34   ar
    31     3     4    1
    32     8     9    1
    33     9    10    1
    34    14    15   ar
    35    15    16   ar
    36    16    11   ar
    37    10     5    1
    38     4     1    1
    39    34    29   ar
    40    20    23    1
    41    25    28    1
@<TRIPOS>MOLECULE
*****
 38 41 0 0 0
SMALL
GASTEIGER

@<TRIPOS>ATOM
      1 N         142.1300  138.5728  160.5462 N.3     1  UNL1       -0.2711
      2 C         141.2900  138.8020  159.3247 C.3     1  UNL1        0.0933
      3 C         142.1457  137.8395  158.5557 C.3     1  UNL1        0.1035
      4 C         142.9856  137.6102  159.7772 C.3     1  UNL1        0.0933
      5 C         142.0966  140.1283  164.7687 C.3     1  UNL1        0.0255
      6 C         141.2739  140.8059  163.7133 C.3     1  UNL1        0.0058
      7 C         141.2850  140.2874  162.3058 C.3     1  UNL1        0.0163
      8 C         142.1188  139.0913  161.9537 C.3     1  UNL1        0.0576
      9 C         142.9416  138.4137  163.0091 C.3     1  UNL1        0.0163
     10 C         142.9305  138.9322  164.4166 C.3     1  UNL1        0.0058
     11 C         142.0633  141.6838  168.9912 C.ar    1  UNL1        0.2203
     12 N         142.6237  140.3238  168.6973 N.ar    1  UNL1       -0.2124
     13 C         142.6348  139.8053  167.2898 C.ar    1  UNL1        0.0991
     14 C         142.0855  140.6468  166.1762 C.ar    1  UNL1        0.0159
     15 C         141.5251  142.0067  166.4700 C.ar    1  UNL1        0.0991
     16 N         141.5140  142.5253  167.8775 N.ar    1  UNL1       -0.2124
     17 C         143.0045  143.2874  170.8057 C.3     1  UNL1        0.1151
     18 N         142.0522  142.2023  170.3986 N.pl3   1  UNL1       -0.2747
     19 C         141.0888  141.6358  171.3990 C.3     1  UNL1        0.1151
     20 N         142.1568  137.3210  157.1483 N.am    1  UNL1       -0.3018
     21 C         143.1102  137.8976  156.1441 C.2     1  UNL1        0.2426
     22 O         144.0526  138.9927  156.5474 O.2     1  UNL1       -0.2733
     23 H         141.5383  136.6022  156.8836 H       1  UNL1        0.1495
     24 C         143.1213  137.3791  154.7366 C.3     1  UNL1        0.1759
     25 N         143.4271  135.9346  154.4718 N.am    1  UNL1       -0.2931
     26 C         142.3541  134.8990  154.6334 C.2     1  UNL1        0.2462
     27 O         140.9752  135.3079  155.0596 O.2     1  UNL1       -0.2701
     28 H         144.3321  135.6662  154.1921 H       1  UNL1        0.1502
     29 C         142.6598  133.4546  154.3686 C.ar    1  UNL1        0.0533
     30 C         142.3158  132.8461  153.0414 C.ar    1  UNL1        0.0045
     31 C         142.6215  131.4017  152.7767 C.ar    1  UNL1        0.0001
     32 C         143.2713  130.5656  153.8391 C.ar    1  UNL1        0.0039
     33 C         143.6153  131.1740  155.1663 C.ar    1  UNL1        0.0716
     34 C         143.3096  132.6185  155.4311 C.ar    1  UNL1        0.0084
     35 C         144.2651  130.3380  156.2288 C.3     1  UNL1        0.4186
     36 F         144.9149  129.5019  157.2913 F       1  UNL1       -0.1659
     37 F         143.2155  130.7690  157.2099 F       1  UNL1       -0.1659
     38 F         145.3147  129.9069  155.2477 F       1  UNL1       -0.1659
@<TRIPOS>BOND
     1    17    18    1
     2    18    19    1
     3    18    11    1
     4    11    12   ar
     5    12    13   ar
     6    13    14   ar
     7     5    14    1
     8     5     6    1
     9     6     7    1
    10     7     8    1
    11     8     1    1
    12     1     2    1
    13     2     3    1
    14     3    20    1
    15    20    21   am
    16    21    22    2
    17    21    24    1
    18    24    25    1
    19    25    26   am
    20    26    27    2
    21    26    29    1
    22    29    30   ar
    23    30    31   ar
    24    31    32   ar
    25    32    33   ar
    26    33    35    1
    27    35    36    1
    28    35    37    1
    29    35    38    1
    30    33    34   ar
    31     3     4    1
    32     8     9    1
    33     9    10    1
    34    14    15   ar
    35    15    16   ar
    36    16    11   ar
    37    10     5    1
    38     4     1    1
    39    34    29   ar
    40    20    23    1
    41    25    28    1
@<TRIPOS>MOLECULE
*****
 38 41 0 0 0
SMALL
GASTEIGER

@<TRIPOS>ATOM
      1 N         140.4808  136.2201  154.4358 N.3     1  UNL1       -0.2711
      2 C         139.9390  137.1345  153.3773 C.3     1  UNL1        0.0933
      3 C         139.3765  138.0313  154.4400 C.3     1  UNL1        0.1035
      4 C         139.9183  137.1170  155.4985 C.3     1  UNL1        0.0933
      5 C         142.8235  132.3780  154.4270 C.3     1  UNL1        0.0255
      6 C         142.2092  132.8848  153.1559 C.3     1  UNL1        0.0058
      7 C         141.4283  134.1655  153.1588 C.3     1  UNL1        0.0163
      8 C         141.2617  134.9394  154.4329 C.3     1  UNL1        0.0576
      9 C         141.8760  134.4326  155.7040 C.3     1  UNL1        0.0163
     10 C         142.6568  133.1518  155.7011 C.3     1  UNL1        0.0058
     11 C         145.1661  128.5358  154.4181 C.ar    1  UNL1        0.2203
     12 N         144.7512  129.1642  153.1209 N.ar    1  UNL1       -0.2124
     13 C         143.9703  130.4449  153.1239 C.ar    1  UNL1        0.0991
     14 C         143.6043  131.0972  154.4240 C.ar    1  UNL1        0.0159
     15 C         144.0193  130.4688  155.7213 C.ar    1  UNL1        0.0991
     16 N         144.8002  129.1881  155.7183 N.ar    1  UNL1       -0.2124
     17 C         146.3821  126.6390  155.7117 C.3     1  UNL1        0.1151
     18 N         145.9470  127.2551  154.4152 N.pl3   1  UNL1       -0.2747
     19 C         146.2927  126.5905  153.1157 C.3     1  UNL1        0.1151
     20 N         138.5956  139.3120  154.4430 N.am    1  UNL1       -0.3018
     21 C         137.0985  139.2773  154.5279 C.2     1  UNL1        0.2426
     22 O         136.3821  137.9619  154.6100 O.2     1  UNL1       -0.2733
     23 H         139.0658  140.1753  154.3891 H       1  UNL1        0.1495
     24 C         136.3176  140.5581  154.5309 C.3     1  UNL1        0.1759
     25 N         134.8223  140.5245  154.6452 N.am    1  UNL1       -0.2931
     26 C         134.1766  140.3415  155.9867 C.2     1  UNL1        0.2462
     27 O         135.0262  140.1922  157.2139 O.2     1  UNL1       -0.2701
     28 H         134.2647  140.6225  153.8398 H       1  UNL1        0.1502
     29 C         132.6813  140.3080  156.1010 C.ar    1  UNL1        0.0533
     30 C         131.8545  141.3705  155.4397 C.ar    1  UNL1        0.0045
     31 C         130.3593  141.3370  155.5540 C.ar    1  UNL1        0.0001
     32 C         129.6908  140.2408  156.3297 C.ar    1  UNL1        0.0039
     33 C         130.5176  139.1783  156.9910 C.ar    1  UNL1        0.0716
     34 C         132.0129  139.2118  156.8767 C.ar    1  UNL1        0.0084
     35 C         129.8491  138.0822  157.7667 C.3     1  UNL1        0.4186
     36 F         129.1806  136.9861  158.5424 F       1  UNL1       -0.1659
     37 F         129.9051  137.1937  156.5595 F       1  UNL1       -0.1659
     38 F         129.7931  138.9707  158.9739 F       1  UNL1       -0.1659
@<TRIPOS>BOND
     1    17    18    1
     2    18    19    1
     3    18    11    1
     4    11    12   ar
     5    12    13   ar
     6    13    14   ar
     7     5    14    1
     8     5     6    1
     9     6     7    1
    10     7     8    1
    11     8     1    1
    12     1     2    1
    13     2     3    1
    14     3    20    1
    15    20    21   am
    16    21    22    2
    17    21    24    1
    18    24    25    1
    19    25    26   am
    20    26    27    2
    21    26    29    1
    22    29    30   ar
    23    30    31   ar
    24    31    32   ar
    25    32    33   ar
    26    33    35    1
    27    35    36    1
    28    35    37    1
    29    35    38    1
    30    33    34   ar
    31     3     4    1
    32     8     9    1
    33     9    10    1
    34    14    15   ar
    35    15    16   ar
    36    16    11   ar
    37    10     5    1
    38     4     1    1
    39    34    29   ar
    40    20    23    1
    41    25    28    1
@<TRIPOS>MOLECULE
*****
 38 41 0 0 0
SMALL
GASTEIGER

@<TRIPOS>ATOM
      1 N         140.6689  144.6005  159.9648 N.3     1  UNL1       -0.2711
      2 C         139.9523  144.0672  158.7598 C.3     1  UNL1        0.0933
      3 C         140.3948  145.2618  157.9679 C.3     1  UNL1        0.1035
      4 C         141.1114  145.7952  159.1729 C.3     1  UNL1        0.0933
      5 C         141.2504  143.1978  164.2009 C.3     1  UNL1        0.0255
      6 C         141.0812  142.1974  163.0961 C.3     1  UNL1        0.0058
      7 C         140.8874  142.6650  161.6841 C.3     1  UNL1        0.0163
      8 C         140.8627  144.1330  161.3768 C.3     1  UNL1        0.0576
      9 C         141.0319  145.1333  162.4816 C.3     1  UNL1        0.0163
     10 C         141.2257  144.6658  163.8936 C.3     1  UNL1        0.0058
     11 C         141.8319  141.7951  168.4369 C.ar    1  UNL1        0.2203
     12 N         140.5225  142.3955  168.0188 N.ar    1  UNL1       -0.2124
     13 C         140.3287  142.8631  166.6067 C.ar    1  UNL1        0.0991
     14 C         141.4442  142.7302  165.6129 C.ar    1  UNL1        0.0159
     15 C         142.7536  142.1298  166.0310 C.ar    1  UNL1        0.0991
     16 N         142.9475  141.6622  167.4431 N.ar    1  UNL1       -0.2124
     17 C         142.7543  140.0449  170.1209 C.3     1  UNL1        0.1151
     18 N         142.0257  141.3275  169.8489 N.pl3   1  UNL1       -0.2747
     19 C         141.4909  142.1425  170.9890 C.3     1  UNL1        0.1151
     20 N         140.2010  145.7294  156.5559 N.am    1  UNL1       -0.3018
     21 C         139.4271  146.9846  156.2811 C.2     1  UNL1        0.2426
     22 O         138.8471  147.7723  157.4182 O.2     1  UNL1       -0.2733
     23 H         140.5817  145.2124  155.8095 H       1  UNL1        0.1495
     24 C         139.2333  147.4521  154.8690 C.3     1  UNL1        0.1759
     25 N         139.9782  148.6539  154.3680 N.am    1  UNL1       -0.2931
     26 C         139.4242  150.0289  154.5969 C.2     1  UNL1        0.2462
     27 O         138.1252  150.2022  155.3268 O.2     1  UNL1       -0.2701
     28 H         140.8308  148.5401  153.8889 H       1  UNL1        0.1502
     29 C         140.1691  151.2306  154.0959 C.ar    1  UNL1        0.0533
     30 C         139.4947  152.1985  153.1692 C.ar    1  UNL1        0.0045
     31 C         140.2396  153.4001  152.6682 C.ar    1  UNL1        0.0001
     32 C         141.6588  153.6341  153.0938 C.ar    1  UNL1        0.0039
     33 C         142.3332  152.6663  154.0204 C.ar    1  UNL1        0.0716
     34 C         141.5883  151.4645  154.5214 C.ar    1  UNL1        0.0084
     35 C         143.7524  152.9002  154.4460 C.3     1  UNL1        0.4186
     36 F         145.1716  153.1341  154.8716 F       1  UNL1       -0.1659
     37 F         144.0715  151.4601  154.1733 F       1  UNL1       -0.1659
     38 F         143.4332  154.3403  154.7187 F       1  UNL1       -0.1659
@<TRIPOS>BOND
     1    17    18    1
     2    18    19    1
     3    18    11    1
     4    11    12   ar
     5    12    13   ar
     6    13    14   ar
     7     5    14    1
     8     5     6    1
     9     6     7    1
    10     7     8    1
    11     8     1    1
    12     1     2    1
    13     2     3    1
    14     3    20    1
    15    20    21   am
    16    21    22    2
    17    21    24    1
    18    24    25    1
    19    25    26   am
    20    26    27    2
    21    26    29    1
    22    29    30   ar
    23    30    31   ar
    24    31    32   ar
    25    32    33   ar
    26    33    35    1
    27    35    36    1
    28    35    37    1
    29    35    38    1
    30    33    34   ar
    31     3     4    1
    32     8     9    1
    33     9    10    1
    34    14    15   ar
    35    15    16   ar
    36    16    11   ar
    37    10     5    1
    38     4     1    1
    39    34    29   ar
    40    20    23    1
    41    25    28    1
@<TRIPOS>MOLECULE
*****
 38 41 0 0 0
SMALL
GASTEIGER

@<TRIPOS>ATOM
      1 N         141.9405  138.6230  160.5750 N.3     1  UNL1       -0.2711
      2 C         142.8106  137.6017  159.9042 C.3     1  UNL1        0.0933
      3 C         142.1662  137.9178  158.5871 C.3     1  UNL1        0.1035
      4 C         141.2960  138.9390  159.2578 C.3     1  UNL1        0.0933
      5 C         141.4616  140.1191  164.7919 C.3     1  UNL1        0.0255
      6 C         141.6970  138.6600  164.5360 C.3     1  UNL1        0.0058
      7 C         141.8566  138.1613  163.1303 C.3     1  UNL1        0.0163
      8 C         141.7808  139.1217  161.9806 C.3     1  UNL1        0.0576
      9 C         141.5454  140.5808  162.2366 C.3     1  UNL1        0.0163
     10 C         141.3858  141.0795  163.6422 C.3     1  UNL1        0.0058
     11 C         140.9828  141.6152  169.0088 C.ar    1  UNL1        0.2203
     12 N         140.1447  140.4717  168.5190 N.ar    1  UNL1       -0.2124
     13 C         140.3044  139.9730  167.1134 C.ar    1  UNL1        0.0991
     14 C         141.3020  140.6178  166.1975 C.ar    1  UNL1        0.0159
     15 C         142.1401  141.7614  166.6873 C.ar    1  UNL1        0.0991
     16 N         141.9804  142.2601  168.0930 N.ar    1  UNL1       -0.2124
     17 C         139.6943  143.0400  170.7581 C.3     1  UNL1        0.1151
     18 N         140.8232  142.1139  170.4145 N.pl3   1  UNL1       -0.2747
     19 C         141.7924  141.6866  171.4765 C.3     1  UNL1        0.1151
     20 N         142.3258  137.4190  157.1815 N.am    1  UNL1       -0.3018
     21 C         143.2919  138.0919  156.2521 C.2     1  UNL1        0.2426
     22 O         144.0985  139.2636  156.7284 O.2     1  UNL1       -0.2733
     23 H         141.7964  136.6501  156.8689 H       1  UNL1        0.1495
     24 C         143.4515  137.5932  154.8465 C.3     1  UNL1        0.1759
     25 N         143.6659  136.1311  154.5892 N.am    1  UNL1       -0.2931
     26 C         142.4992  135.1884  154.6017 C.2     1  UNL1        0.2462
     27 O         141.1181  135.7079  154.8713 O.2     1  UNL1       -0.2701
     28 H         144.5724  135.7901  154.4123 H       1  UNL1        0.1502
     29 C         142.7136  133.7262  154.3445 C.ar    1  UNL1        0.0533
     30 C         142.2679  133.1197  153.0469 C.ar    1  UNL1        0.0045
     31 C         142.4823  131.6576  152.7897 C.ar    1  UNL1        0.0001
     32 C         143.1424  130.8019  153.8300 C.ar    1  UNL1        0.0039
     33 C         143.5881  131.4084  155.1275 C.ar    1  UNL1        0.0716
     34 C         143.3737  132.8706  155.3847 C.ar    1  UNL1        0.0084
     35 C         144.2482  130.5528  156.1677 C.3     1  UNL1        0.4186
     36 F         144.9082  129.6971  157.2080 F       1  UNL1       -0.1659
     37 F         145.1877  130.0151  155.1294 F       1  UNL1       -0.1659
     38 F         143.3086  131.0904  157.2061 F       1  UNL1       -0.1659
@<TRIPOS>BOND
     1    17    18    1
     2    18    19    1
     3    18    11    1
     4    11    12   ar
     5    12    13   ar
     6    13    14   ar
     7     5    14    1
     8     5     6    1
     9     6     7    1
    10     7     8    1
    11     8     1    1
    12     1     2    1
    13     2     3    1
    14     3    20    1
    15    20    21   am
    16    21    22    2
    17    21    24    1
    18    24    25    1
    19    25    26   am
    20    26    27    2
    21    26    29    1
    22    29    30   ar
    23    30    31   ar
    24    31    32   ar
    25    32    33   ar
    26    33    35    1
    27    35    36    1
    28    35    37    1
    29    35    38    1
    30    33    34   ar
    31     3     4    1
    32     8     9    1
    33     9    10    1
    34    14    15   ar
    35    15    16   ar
    36    16    11   ar
    37    10     5    1
    38     4     1    1
    39    34    29   ar
    40    20    23    1
    41    25    28    1
@<TRIPOS>MOLECULE
*****
 38 41 0 0 0
SMALL
GASTEIGER

@<TRIPOS>ATOM
      1 N         142.8789  137.1846  157.0533 N.3     1  UNL1       -0.2711
      2 C         142.6226  137.9947  158.2895 C.3     1  UNL1        0.0933
      3 C         143.3044  139.1726  157.6588 C.3     1  UNL1        0.1035
      4 C         143.5608  138.3625  156.4227 C.3     1  UNL1        0.0933
      5 C         141.9764  132.9672  155.7689 C.3     1  UNL1        0.0255
      6 C         141.2659  134.1174  155.1192 C.3     1  UNL1        0.0058
      7 C         141.5667  135.5232  155.5474 C.3     1  UNL1        0.0163
      8 C         142.5781  135.7788  156.6252 C.3     1  UNL1        0.0576
      9 C         143.2887  134.6286  157.2748 C.3     1  UNL1        0.0163
     10 C         142.9878  133.2228  156.8467 C.3     1  UNL1        0.0058
     11 C         141.0739  128.7499  154.4845 C.ar    1  UNL1        0.2203
     12 N         140.0198  129.8108  154.3695 N.ar    1  UNL1       -0.2124
     13 C         140.3206  131.2166  154.7976 C.ar    1  UNL1        0.0991
     14 C         141.6756  131.5615  155.3407 C.ar    1  UNL1        0.0159
     15 C         142.7297  130.5006  155.4557 C.ar    1  UNL1        0.0991
     16 N         142.4289  129.0948  155.0276 N.ar    1  UNL1       -0.2124
     17 C         141.8949  126.3827  153.7974 C.3     1  UNL1        0.1151
     18 N         140.7731  127.3442  154.0563 N.pl3   1  UNL1       -0.2747
     19 C         139.3505  126.8999  153.8871 C.3     1  UNL1        0.1151
     20 N         143.6052  140.5784  158.0869 N.am    1  UNL1       -0.3018
     21 C         143.0573  141.7344  157.3038 C.2     1  UNL1        0.2426
     22 O         142.2085  141.4847  156.0924 O.2     1  UNL1       -0.2733
     23 H         144.1623  140.7423  158.8819 H       1  UNL1        0.1495
     24 C         143.3582  143.1402  157.7319 C.3     1  UNL1        0.1759
     25 N         142.7230  143.6991  158.9706 N.am    1  UNL1       -0.2931
     26 C         143.2581  143.3262  160.3214 C.2     1  UNL1        0.2462
     27 O         144.4282  142.3944  160.4336 O.2     1  UNL1       -0.2701
     28 H         141.9550  144.3107  158.8970 H       1  UNL1        0.1502
     29 C         142.6230  143.8851  161.5601 C.ar    1  UNL1        0.0533
     30 C         143.4820  144.4180  162.6683 C.ar    1  UNL1        0.0045
     31 C         142.8469  144.9769  163.9070 C.ar    1  UNL1        0.0001
     32 C         141.3528  145.0029  164.0375 C.ar    1  UNL1        0.0039
     33 C         140.4938  144.4701  162.9293 C.ar    1  UNL1        0.0716
     34 C         141.1289  143.9111  161.6905 C.ar    1  UNL1        0.0084
     35 C         138.9997  144.4961  163.0597 C.3     1  UNL1        0.4186
     36 F         137.5057  144.5221  163.1902 F       1  UNL1       -0.1659
     37 F         139.1268  145.2104  164.3726 F       1  UNL1       -0.1659
     38 F         138.8727  143.7818  161.7469 F       1  UNL1       -0.1659
@<TRIPOS>BOND
     1    17    18    1
     2    18    19    1
     3    18    11    1
     4    11    12   ar
     5    12    13   ar
     6    13    14   ar
     7     5    14    1
     8     5     6    1
     9     6     7    1
    10     7     8    1
    11     8     1    1
    12     1     2    1
    13     2     3    1
    14     3    20    1
    15    20    21   am
    16    21    22    2
    17    21    24    1
    18    24    25    1
    19    25    26   am
    20    26    27    2
    21    26    29    1
    22    29    30   ar
    23    30    31   ar
    24    31    32   ar
    25    32    33   ar
    26    33    35    1
    27    35    36    1
    28    35    37    1
    29    35    38    1
    30    33    34   ar
    31     3     4    1
    32     8     9    1
    33     9    10    1
    34    14    15   ar
    35    15    16   ar
    36    16    11   ar
    37    10     5    1
    38     4     1    1
    39    34    29   ar
    40    20    23    1
    41    25    28    1
@<TRIPOS>MOLECULE
*****
 38 41 0 0 0
SMALL
GASTEIGER

@<TRIPOS>ATOM
      1 N         142.6949  137.4350  157.6874 N.3     1  UNL1       -0.2711
      2 C         142.3339  138.8022  157.1868 C.3     1  UNL1        0.0933
      3 C         142.3122  139.3127  158.5971 C.3     1  UNL1        0.1035
      4 C         142.6733  137.9456  159.0977 C.3     1  UNL1        0.0933
      5 C         143.5068  133.4517  155.7576 C.3     1  UNL1        0.0255
      6 C         143.1213  134.6296  154.9128 C.3     1  UNL1        0.0058
      7 C         142.8507  135.9574  155.5561 C.3     1  UNL1        0.0163
      8 C         142.9655  136.1072  157.0441 C.3     1  UNL1        0.0576
      9 C         143.3510  134.9292  157.8889 C.3     1  UNL1        0.0163
     10 C         143.6216  133.6015  157.2457 C.3     1  UNL1        0.0058
     11 C         144.3186  129.4683  153.8279 C.ar    1  UNL1        0.2203
     12 N         144.9190  129.7906  155.1641 N.ar    1  UNL1       -0.2124
     13 C         144.6483  131.1184  155.8074 C.ar    1  UNL1        0.0991
     14 C         143.7774  132.1239  155.1144 C.ar    1  UNL1        0.0159
     15 C         143.1770  131.8016  153.7781 C.ar    1  UNL1        0.0991
     16 N         143.4476  130.4738  153.1349 N.ar    1  UNL1       -0.2124
     17 C         143.5372  127.4899  152.3362 C.3     1  UNL1        0.1151
     18 N         144.5892  128.1405  153.1846 N.pl3   1  UNL1       -0.2747
     19 C         145.9118  127.4634  153.3898 C.3     1  UNL1        0.1151
     20 N         142.0416  140.6405  159.2403 N.am    1  UNL1       -0.3018
     21 C         143.0929  141.7103  159.2234 C.2     1  UNL1        0.2426
     22 O         144.4150  141.4523  158.5632 O.2     1  UNL1       -0.2733
     23 H         141.1740  140.8099  159.6736 H       1  UNL1        0.1495
     24 C         142.8223  143.0380  159.8667 C.3     1  UNL1        0.1759
     25 N         142.0674  143.1043  161.1612 N.am    1  UNL1       -0.2931
     26 C         142.7541  142.7558  162.4485 C.2     1  UNL1        0.2462
     27 O         144.1957  142.3411  162.4412 O.2     1  UNL1       -0.2701
     28 H         141.1213  143.3765  161.1660 H       1  UNL1        0.1502
     29 C         141.9993  142.8221  163.7430 C.ar    1  UNL1        0.0533
     30 C         142.6419  142.3437  165.0112 C.ar    1  UNL1        0.0045
     31 C         141.8871  142.4100  166.3058 C.ar    1  UNL1        0.0001
     32 C         140.4897  142.9545  166.3321 C.ar    1  UNL1        0.0039
     33 C         139.8471  143.4329  165.0640 C.ar    1  UNL1        0.0716
     34 C         140.6019  143.3667  163.7694 C.ar    1  UNL1        0.0084
     35 C         138.4497  143.9775  165.0904 C.3     1  UNL1        0.4186
     36 F         137.0523  144.5221  165.1168 F       1  UNL1       -0.1659
     37 F         138.9673  145.2797  165.6253 F       1  UNL1       -0.1659
     38 F         137.9321  142.6752  164.5554 F       1  UNL1       -0.1659
@<TRIPOS>BOND
     1    17    18    1
     2    18    19    1
     3    18    11    1
     4    11    12   ar
     5    12    13   ar
     6    13    14   ar
     7     5    14    1
     8     5     6    1
     9     6     7    1
    10     7     8    1
    11     8     1    1
    12     1     2    1
    13     2     3    1
    14     3    20    1
    15    20    21   am
    16    21    22    2
    17    21    24    1
    18    24    25    1
    19    25    26   am
    20    26    27    2
    21    26    29    1
    22    29    30   ar
    23    30    31   ar
    24    31    32   ar
    25    32    33   ar
    26    33    35    1
    27    35    36    1
    28    35    37    1
    29    35    38    1
    30    33    34   ar
    31     3     4    1
    32     8     9    1
    33     9    10    1
    34    14    15   ar
    35    15    16   ar
    36    16    11   ar
    37    10     5    1
    38     4     1    1
    39    34    29   ar
    40    20    23    1
    41    25    28    1
