@<TRIPOS>MOLECULE
*****
 32 36 0 0 0
SMALL
GASTEIGER

@<TRIPOS>ATOM
      1 N         141.6847  138.2731  164.4968 N.pl3   1  UNL1       -0.2801
      2 H         141.7356  137.3379  164.1933 H       1  UNL1        0.1552
      3 C         142.6648  139.2838  163.9795 C.ar    1  UNL1        0.2208
      4 N         144.1144  139.1815  164.3513 N.ar    1  UNL1       -0.2111
      5 C         145.0945  140.1923  163.8340 C.ar    1  UNL1        0.1147
      6 C         144.6251  141.3054  162.9449 C.ar    1  UNL1        0.0960
      7 CL        145.6052  142.3162  162.4276 Cl      1  UNL1       -0.0790
      8 C         143.1754  141.4078  162.5730 C.ar    1  UNL1        0.1138
      9 N         142.1954  140.3970  163.0903 N.ar    1  UNL1       -0.2111
     10 C         142.7060  142.5209  161.6839 C.ar    1  UNL1        0.1031
     11 C         143.1901  142.8015  160.2922 C.ar    1  UNL1        0.1196
     12 N         142.4534  144.0029  159.7785 N.ar    1  UNL1       -0.2248
     13 C         141.5140  144.4648  160.8528 C.ar    1  UNL1        0.1479
     14 C         140.5366  145.6012  160.9109 C.ar    1  UNL1        0.0374
     15 C         139.7153  145.8216  162.1466 C.ar    1  UNL1        0.0046
     16 C         139.8714  144.9057  163.3242 C.ar    1  UNL1        0.0191
     17 C         140.8488  143.7694  163.2661 C.ar    1  UNL1        0.0815
     18 N         141.6701  143.5490  162.0304 N.ar    1  UNL1       -0.2874
     19 C         139.2077  138.2429  165.2801 C.ar    1  UNL1        0.1521
     20 C         138.1499  138.6570  166.2599 C.ar    1  UNL1        0.0395
     21 C         138.5114  139.5151  167.4359 C.ar    1  UNL1        0.0177
     22 C         139.9307  139.9592  167.6322 C.ar    1  UNL1        0.0494
     23 C         140.9884  139.5451  166.6525 C.ar    1  UNL1        0.0323
     24 C         140.6269  138.6870  165.4764 C.ar    1  UNL1        0.0861
     25 N         140.2922  140.8173  168.8082 N.pl3   1  UNL1       -0.3027
     26 C         140.5225  140.1905  170.1513 C.3     1  UNL1        0.1231
     27 C         140.8840  141.0486  171.3273 C.3     1  UNL1        0.1636
     28 O         141.0153  142.5335  171.1600 O.3     1  UNL1       -0.3501
     29 C         140.7850  143.1603  169.8168 C.3     1  UNL1        0.1636
     30 C         140.4235  142.3021  168.6409 C.3     1  UNL1        0.1231
     31 C         138.5192  138.0195  162.7849 C.3     1  UNL1        0.2525
     32 O         138.8462  137.3848  164.1041 O.3     1  UNL1       -0.4702
@<TRIPOS>BOND
     1    31    32    1
     2    32    19    1
     3    19    20   ar
     4    20    21   ar
     5    21    22   ar
     6    22    25    1
     7    25    26    1
     8    26    27    1
     9    27    28    1
    10    28    29    1
    11    29    30    1
    12    22    23   ar
    13    23    24   ar
    14    24     1    1
    15     1     3    1
    16     3     4   ar
    17     4     5   ar
    18     5     6   ar
    19     6     7    1
    20     6     8   ar
    21     8    10    1
    22    10    11   ar
    23    11    12   ar
    24    12    13   ar
    25    13    14   ar
    26    14    15   ar
    27    15    16   ar
    28    16    17   ar
    29    17    18   ar
    30     8     9   ar
    31    24    19   ar
    32     9     3   ar
    33    30    25    1
    34    18    10   ar
    35    18    13   ar
    36     1     2    1
@<TRIPOS>MOLECULE
*****
 32 36 0 0 0
SMALL
GASTEIGER

@<TRIPOS>ATOM
      1 N         141.4223  139.5102  164.1531 N.pl3   1  UNL1       -0.2801
      2 H         141.6333  138.6998  163.6353 H       1  UNL1        0.1552
      3 C         142.0796  140.8134  163.8074 C.ar    1  UNL1        0.2208
      4 N         143.4213  141.1532  164.3856 N.ar    1  UNL1       -0.2111
      5 C         144.0786  142.4565  164.0400 C.ar    1  UNL1        0.1147
      6 C         143.3943  143.4198  163.1160 C.ar    1  UNL1        0.0960
      7 CL        144.0517  144.7230  162.7703 Cl      1  UNL1       -0.0790
      8 C         142.0526  143.0799  162.5377 C.ar    1  UNL1        0.1138
      9 N         141.3953  141.7767  162.8834 N.ar    1  UNL1       -0.2111
     10 C         141.3682  144.0433  161.6137 C.ar    1  UNL1        0.1031
     11 C         140.2533  144.9768  161.9816 C.ar    1  UNL1        0.1196
     12 N         139.8747  145.7527  160.7550 N.ar    1  UNL1       -0.2248
     13 C         140.7557  145.2987  159.6290 C.ar    1  UNL1        0.1479
     14 C         140.8366  145.7107  158.1890 C.ar    1  UNL1        0.0374
     15 C         141.8406  145.0663  157.2798 C.ar    1  UNL1        0.0046
     16 C         142.7637  144.0098  157.8105 C.ar    1  UNL1        0.0191
     17 C         142.6828  143.5977  159.2505 C.ar    1  UNL1        0.0815
     18 N         141.6788  144.2421  160.1598 N.ar    1  UNL1       -0.2874
     19 C         139.1593  138.6834  165.1253 C.ar    1  UNL1        0.1521
     20 C         138.1803  138.6148  166.2598 C.ar    1  UNL1        0.0395
     21 C         138.4855  139.3044  167.5565 C.ar    1  UNL1        0.0177
     22 C         139.7696  140.0626  167.7187 C.ar    1  UNL1        0.0494
     23 C         140.7484  140.1311  166.5842 C.ar    1  UNL1        0.0323
     24 C         140.4433  139.4416  165.2875 C.ar    1  UNL1        0.0861
     25 N         140.0748  140.7522  169.0153 N.pl3   1  UNL1       -0.3027
     26 C         140.4708  139.9475  170.2177 C.3     1  UNL1        0.1231
     27 C         140.7760  140.6371  171.5143 C.3     1  UNL1        0.1636
     28 O         140.6851  142.1315  171.6085 O.3     1  UNL1       -0.3501
     29 C         140.2891  142.9361  170.4062 C.3     1  UNL1        0.1636
     30 C         139.9839  142.2464  169.1095 C.3     1  UNL1        0.1231
     31 C         138.2703  138.7701  162.6855 C.3     1  UNL1        0.2525
     32 O         138.8541  137.9938  163.8286 O.3     1  UNL1       -0.4702
@<TRIPOS>BOND
     1    31    32    1
     2    32    19    1
     3    19    20   ar
     4    20    21   ar
     5    21    22   ar
     6    22    25    1
     7    25    26    1
     8    26    27    1
     9    27    28    1
    10    28    29    1
    11    29    30    1
    12    22    23   ar
    13    23    24   ar
    14    24     1    1
    15     1     3    1
    16     3     4   ar
    17     4     5   ar
    18     5     6   ar
    19     6     7    1
    20     6     8   ar
    21     8    10    1
    22    10    11   ar
    23    11    12   ar
    24    12    13   ar
    25    13    14   ar
    26    14    15   ar
    27    15    16   ar
    28    16    17   ar
    29    17    18   ar
    30     8     9   ar
    31    24    19   ar
    32     9     3   ar
    33    30    25    1
    34    18    10   ar
    35    18    13   ar
    36     1     2    1
@<TRIPOS>MOLECULE
*****
 32 36 0 0 0
SMALL
GASTEIGER

@<TRIPOS>ATOM
      1 N         141.4968  137.4515  163.5889 N.pl3   1  UNL1       -0.2801
      2 H         141.6028  136.4730  163.6115 H       1  UNL1        0.1552
      3 C         142.1228  138.2484  162.4829 C.ar    1  UNL1        0.2208
      4 N         142.6847  137.5498  161.2804 N.ar    1  UNL1       -0.2111
      5 C         143.3107  138.3466  160.1745 C.ar    1  UNL1        0.1147
      6 C         143.3749  139.8421  160.2711 C.ar    1  UNL1        0.0960
      7 CL        144.0009  140.6390  159.1652 Cl      1  UNL1       -0.0790
      8 C         142.8129  140.5408  161.4737 C.ar    1  UNL1        0.1138
      9 N         142.1869  139.7439  162.5796 N.ar    1  UNL1       -0.2111
     10 C         142.8771  142.0363  161.5704 C.ar    1  UNL1        0.1031
     11 C         142.4901  143.0068  160.4940 C.ar    1  UNL1        0.1196
     12 N         142.7133  144.3942  161.0187 N.ar    1  UNL1       -0.2248
     13 C         143.2382  144.2812  162.4193 C.ar    1  UNL1        0.1479
     14 C         143.6371  145.3169  163.4283 C.ar    1  UNL1        0.0374
     15 C         144.1372  144.8955  164.7782 C.ar    1  UNL1        0.0046
     16 C         144.2385  143.4382  165.1192 C.ar    1  UNL1        0.0191
     17 C         143.8396  142.4025  164.1102 C.ar    1  UNL1        0.0815
     18 N         143.3395  142.8239  162.7603 N.ar    1  UNL1       -0.2874
     19 C         139.2098  138.1303  164.6180 C.ar    1  UNL1        0.1521
     20 C         138.4222  138.8243  165.6896 C.ar    1  UNL1        0.0395
     21 C         139.1339  139.5334  166.8034 C.ar    1  UNL1        0.0177
     22 C         140.6333  139.5485  166.8457 C.ar    1  UNL1        0.0494
     23 C         141.4208  138.8546  165.7742 C.ar    1  UNL1        0.0323
     24 C         140.7091  138.1455  164.6603 C.ar    1  UNL1        0.0861
     25 N         141.3450  140.2576  167.9595 N.pl3   1  UNL1       -0.3027
     26 C         141.0601  139.8900  169.3856 C.3     1  UNL1        0.1231
     27 C         141.7719  140.5991  170.4995 C.3     1  UNL1        0.1636
     28 O         142.7686  141.6758  170.1871 O.3     1  UNL1       -0.3501
     29 C         143.0534  142.0434  168.7610 C.3     1  UNL1        0.1636
     30 C         142.3416  141.3342  167.6472 C.3     1  UNL1        0.1231
     31 C         138.2491  138.1268  162.2040 C.3     1  UNL1        0.2525
     32 O         138.4981  137.4213  163.5041 O.3     1  UNL1       -0.4702
@<TRIPOS>BOND
     1    31    32    1
     2    32    19    1
     3    19    20   ar
     4    20    21   ar
     5    21    22   ar
     6    22    25    1
     7    25    26    1
     8    26    27    1
     9    27    28    1
    10    28    29    1
    11    29    30    1
    12    22    23   ar
    13    23    24   ar
    14    24     1    1
    15     1     3    1
    16     3     4   ar
    17     4     5   ar
    18     5     6   ar
    19     6     7    1
    20     6     8   ar
    21     8    10    1
    22    10    11   ar
    23    11    12   ar
    24    12    13   ar
    25    13    14   ar
    26    14    15   ar
    27    15    16   ar
    28    16    17   ar
    29    17    18   ar
    30     8     9   ar
    31    24    19   ar
    32     9     3   ar
    33    30    25    1
    34    18    10   ar
    35    18    13   ar
    36     1     2    1
@<TRIPOS>MOLECULE
*****
 32 36 0 0 0
SMALL
GASTEIGER

@<TRIPOS>ATOM
      1 N         137.6538  141.9345  162.4866 N.pl3   1  UNL1       -0.2801
      2 H         136.6736  141.9698  162.4013 H       1  UNL1        0.1552
      3 C         138.3158  140.7005  163.0240 C.ar    1  UNL1        0.2208
      4 N         138.0136  139.3625  162.4170 N.ar    1  UNL1       -0.2111
      5 C         138.6757  138.1284  162.9544 C.ar    1  UNL1        0.1147
      6 C         139.6399  138.2324  164.0987 C.ar    1  UNL1        0.0960
      7 CL        140.3020  136.9983  164.6361 Cl      1  UNL1       -0.0790
      8 C         139.9421  139.5705  164.7057 C.ar    1  UNL1        0.1138
      9 N         139.2801  140.8044  164.1683 N.ar    1  UNL1       -0.2111
     10 C         140.9064  139.6744  165.8500 C.ar    1  UNL1        0.1031
     11 C         142.4019  139.6126  165.7511 C.ar    1  UNL1        0.1196
     12 N         142.9642  139.7584  167.1340 N.ar    1  UNL1       -0.2248
     13 C         141.8163  139.9104  168.0875 C.ar    1  UNL1        0.1479
     14 C         141.7648  140.0893  169.5759 C.ar    1  UNL1        0.0374
     15 C         140.4415  140.2164  170.2707 C.ar    1  UNL1        0.0046
     16 C         139.1697  140.1645  169.4771 C.ar    1  UNL1        0.0191
     17 C         139.2212  139.9855  167.9888 C.ar    1  UNL1        0.0815
     18 N         140.5445  139.8585  167.2940 N.ar    1  UNL1       -0.2874
     19 C         138.6098  144.2962  162.9950 C.ar    1  UNL1        0.1521
     20 C         139.4411  145.4765  162.5876 C.ar    1  UNL1        0.0395
     21 C         140.1476  145.4753  161.2643 C.ar    1  UNL1        0.0177
     22 C         140.0227  144.2939  160.3485 C.ar    1  UNL1        0.0494
     23 C         139.1915  143.1137  160.7560 C.ar    1  UNL1        0.0323
     24 C         138.4850  143.1148  162.0792 C.ar    1  UNL1        0.0861
     25 N         140.7292  144.2927  159.0253 N.pl3   1  UNL1       -0.3027
     26 C         140.7872  143.0368  158.2072 C.3     1  UNL1        0.1231
     27 C         141.4936  143.0356  156.8839 C.3     1  UNL1        0.1636
     28 O         142.1420  144.2905  156.3789 O.3     1  UNL1       -0.3501
     29 C         142.0840  145.5464  157.1970 C.3     1  UNL1        0.1636
     30 C         141.3776  145.5475  158.5203 C.3     1  UNL1        0.1231
     31 C         138.5601  144.9123  165.5185 C.3     1  UNL1        0.2525
     32 O         137.9034  144.2973  164.3183 O.3     1  UNL1       -0.4702
@<TRIPOS>BOND
     1    31    32    1
     2    32    19    1
     3    19    20   ar
     4    20    21   ar
     5    21    22   ar
     6    22    25    1
     7    25    26    1
     8    26    27    1
     9    27    28    1
    10    28    29    1
    11    29    30    1
    12    22    23   ar
    13    23    24   ar
    14    24     1    1
    15     1     3    1
    16     3     4   ar
    17     4     5   ar
    18     5     6   ar
    19     6     7    1
    20     6     8   ar
    21     8    10    1
    22    10    11   ar
    23    11    12   ar
    24    12    13   ar
    25    13    14   ar
    26    14    15   ar
    27    15    16   ar
    28    16    17   ar
    29    17    18   ar
    30     8     9   ar
    31    24    19   ar
    32     9     3   ar
    33    30    25    1
    34    18    10   ar
    35    18    13   ar
    36     1     2    1
@<TRIPOS>MOLECULE
*****
 32 36 0 0 0
SMALL
GASTEIGER

@<TRIPOS>ATOM
      1 N         139.0026  138.3144  164.8833 N.pl3   1  UNL1       -0.2801
      2 H         138.4264  137.5995  165.2384 H       1  UNL1        0.1552
      3 C         138.6941  138.9350  163.5530 C.ar    1  UNL1        0.2208
      4 N         138.1732  138.0855  162.4318 N.ar    1  UNL1       -0.2111
      5 C         137.8647  138.7062  161.1015 C.ar    1  UNL1        0.1147
      6 C         138.0770  140.1763  160.8925 C.ar    1  UNL1        0.0960
      7 CL        137.7685  140.7969  159.5622 Cl      1  UNL1       -0.0790
      8 C         138.5979  141.0258  162.0137 C.ar    1  UNL1        0.1138
      9 N         138.9064  140.4051  163.3439 N.ar    1  UNL1       -0.2111
     10 C         138.8102  142.4959  161.8047 C.ar    1  UNL1        0.1031
     11 C         138.0516  143.6008  162.4782 C.ar    1  UNL1        0.1196
     12 N         138.5909  144.9070  161.9752 N.ar    1  UNL1       -0.2248
     13 C         139.6828  144.6093  160.9907 C.ar    1  UNL1        0.1479
     14 C         140.5712  145.5026  160.1766 C.ar    1  UNL1        0.0374
     15 C         141.5951  144.9058  159.2572 C.ar    1  UNL1        0.0046
     16 C         141.7306  143.4156  159.1518 C.ar    1  UNL1        0.0191
     17 C         140.8423  142.5223  159.9658 C.ar    1  UNL1        0.0815
     18 N         139.8184  143.1191  160.8853 N.ar    1  UNL1       -0.2874
     19 C         141.5661  138.3145  165.3060 C.ar    1  UNL1        0.1521
     20 C         142.7525  138.7831  166.0953 C.ar    1  UNL1        0.0395
     21 C         142.5618  139.7202  167.2510 C.ar    1  UNL1        0.0177
     22 C         141.1848  140.1886  167.6174 C.ar    1  UNL1        0.0494
     23 C         139.9984  139.7200  166.8282 C.ar    1  UNL1        0.0323
     24 C         140.1890  138.7829  165.6724 C.ar    1  UNL1        0.0861
     25 N         140.9941  141.1256  168.7731 N.pl3   1  UNL1       -0.3027
     26 C         140.7102  142.5771  168.5229 C.3     1  UNL1        0.1231
     27 C         140.5195  143.5141  169.6786 C.3     1  UNL1        0.1636
     28 O         140.6127  142.9996  171.0845 O.3     1  UNL1       -0.3501
     29 C         140.8966  141.5481  171.3347 C.3     1  UNL1        0.1636
     30 C         141.0873  140.6111  170.1790 C.3     1  UNL1        0.1231
     31 C         142.2037  137.9081  162.8204 C.3     1  UNL1        0.2525
     32 O         141.7567  137.3775  164.1503 O.3     1  UNL1       -0.4702
@<TRIPOS>BOND
     1    31    32    1
     2    32    19    1
     3    19    20   ar
     4    20    21   ar
     5    21    22   ar
     6    22    25    1
     7    25    26    1
     8    26    27    1
     9    27    28    1
    10    28    29    1
    11    29    30    1
    12    22    23   ar
    13    23    24   ar
    14    24     1    1
    15     1     3    1
    16     3     4   ar
    17     4     5   ar
    18     5     6   ar
    19     6     7    1
    20     6     8   ar
    21     8    10    1
    22    10    11   ar
    23    11    12   ar
    24    12    13   ar
    25    13    14   ar
    26    14    15   ar
    27    15    16   ar
    28    16    17   ar
    29    17    18   ar
    30     8     9   ar
    31    24    19   ar
    32     9     3   ar
    33    30    25    1
    34    18    10   ar
    35    18    13   ar
    36     1     2    1
@<TRIPOS>MOLECULE
*****
 32 36 0 0 0
SMALL
GASTEIGER

@<TRIPOS>ATOM
      1 N         142.9486  137.6620  162.0754 N.pl3   1  UNL1       -0.2801
      2 H         143.6477  137.0534  162.4073 H       1  UNL1        0.1552
      3 C         141.7564  137.9723  162.9311 C.ar    1  UNL1        0.2208
      4 N         141.3639  137.0387  164.0376 N.ar    1  UNL1       -0.2111
      5 C         140.1717  137.3491  164.8933 C.ar    1  UNL1        0.1147
      6 C         139.3719  138.5930  164.6426 C.ar    1  UNL1        0.0960
      7 CL        138.1797  138.9034  165.4983 Cl      1  UNL1       -0.0790
      8 C         139.7644  139.5267  163.5360 C.ar    1  UNL1        0.1138
      9 N         140.9566  139.2163  162.6804 N.ar    1  UNL1       -0.2111
     10 C         138.9646  140.7707  163.2853 C.ar    1  UNL1        0.1031
     11 C         137.9614  140.9675  162.1877 C.ar    1  UNL1        0.1196
     12 N         137.4043  142.3547  162.3121 N.ar    1  UNL1       -0.2248
     13 C         138.0634  143.0151  163.4867 C.ar    1  UNL1        0.1479
     14 C         137.9099  144.3815  164.0862 C.ar    1  UNL1        0.0374
     15 C         138.7208  144.7689  165.2872 C.ar    1  UNL1        0.0046
     16 C         139.6851  143.7899  165.8887 C.ar    1  UNL1        0.0191
     17 C         139.8385  142.4236  165.2891 C.ar    1  UNL1        0.0815
     18 N         139.0276  142.0362  164.0881 N.ar    1  UNL1       -0.2874
     19 C         143.6990  139.6345  160.5601 C.ar    1  UNL1        0.1521
     20 C         143.8261  140.2513  159.1986 C.ar    1  UNL1        0.0395
     21 C         143.3299  139.5124  157.9912 C.ar    1  UNL1        0.0177
     22 C         142.7066  138.1568  158.1452 C.ar    1  UNL1        0.0494
     23 C         142.5795  137.5400  159.5066 C.ar    1  UNL1        0.0323
     24 C         143.0757  138.2788  160.7141 C.ar    1  UNL1        0.0861
     25 N         142.2103  137.4180  156.9378 N.pl3   1  UNL1       -0.3027
     26 C         143.1853  136.7497  156.0142 C.3     1  UNL1        0.1231
     27 C         142.6891  136.0108  154.8068 C.3     1  UNL1        0.1636
     28 O         141.2178  135.9403  154.5230 O.3     1  UNL1       -0.3501
     29 C         140.2428  136.6086  155.4465 C.3     1  UNL1        0.1636
     30 C         140.7392  137.3474  156.6539 C.3     1  UNL1        0.1231
     31 C         144.5940  141.8148  161.6533 C.3     1  UNL1        0.2525
     32 O         144.1953  140.3733  161.7675 O.3     1  UNL1       -0.4702
@<TRIPOS>BOND
     1    31    32    1
     2    32    19    1
     3    19    20   ar
     4    20    21   ar
     5    21    22   ar
     6    22    25    1
     7    25    26    1
     8    26    27    1
     9    27    28    1
    10    28    29    1
    11    29    30    1
    12    22    23   ar
    13    23    24   ar
    14    24     1    1
    15     1     3    1
    16     3     4   ar
    17     4     5   ar
    18     5     6   ar
    19     6     7    1
    20     6     8   ar
    21     8    10    1
    22    10    11   ar
    23    11    12   ar
    24    12    13   ar
    25    13    14   ar
    26    14    15   ar
    27    15    16   ar
    28    16    17   ar
    29    17    18   ar
    30     8     9   ar
    31    24    19   ar
    32     9     3   ar
    33    30    25    1
    34    18    10   ar
    35    18    13   ar
    36     1     2    1
@<TRIPOS>MOLECULE
*****
 32 36 0 0 0
SMALL
GASTEIGER

@<TRIPOS>ATOM
      1 N         143.8644  141.9747  163.8612 N.pl3   1  UNL1       -0.2801
      2 H         144.7484  141.9006  163.4341 H       1  UNL1        0.1552
      3 C         142.9009  143.0330  163.4123 C.ar    1  UNL1        0.2208
      4 N         142.7606  144.3021  164.1995 N.ar    1  UNL1       -0.2111
      5 C         141.7971  145.3605  163.7506 C.ar    1  UNL1        0.1147
      6 C         140.9738  145.1497  162.5145 C.ar    1  UNL1        0.0960
      7 CL        140.0103  146.2080  162.0656 Cl      1  UNL1       -0.0790
      8 C         141.1142  143.8805  161.7273 C.ar    1  UNL1        0.1138
      9 N         142.0777  142.8222  162.1762 N.ar    1  UNL1       -0.2111
     10 C         140.2909  143.6697  160.4912 C.ar    1  UNL1        0.1031
     11 C         139.0617  142.8165  160.3855 C.ar    1  UNL1        0.1196
     12 N         138.5635  142.8946  158.9728 N.ar    1  UNL1       -0.2248
     13 C         139.4847  143.7960  158.2055 C.ar    1  UNL1        0.1479
     14 C         139.4894  144.2425  156.7735 C.ar    1  UNL1        0.0374
     15 C         140.5617  145.1681  156.2800 C.ar    1  UNL1        0.0046
     16 C         141.6293  145.6471  157.2184 C.ar    1  UNL1        0.0191
     17 C         141.6247  145.2006  158.6504 C.ar    1  UNL1        0.0815
     18 N         140.5524  144.2751  159.1439 N.ar    1  UNL1       -0.2874
     19 C         143.4354  139.5531  164.6989 C.ar    1  UNL1        0.1521
     20 C         143.0522  138.6077  165.7987 C.ar    1  UNL1        0.0395
     21 C         142.7150  139.1385  167.1605 C.ar    1  UNL1        0.0177
     22 C         142.7610  140.6147  167.4225 C.ar    1  UNL1        0.0494
     23 C         143.1441  141.5601  166.3228 C.ar    1  UNL1        0.0323
     24 C         143.4813  141.0293  164.9609 C.ar    1  UNL1        0.0861
     25 N         142.4238  141.1456  168.7843 N.pl3   1  UNL1       -0.3027
     26 C         141.5639  140.3392  169.7119 C.3     1  UNL1        0.1231
     27 C         141.2267  140.8701  171.0737 C.3     1  UNL1        0.1636
     28 O         141.7495  142.2074  171.5079 O.3     1  UNL1       -0.3501
     29 C         142.6095  143.0137  170.5804 C.3     1  UNL1        0.1636
     30 C         142.9466  142.4827  169.2186 C.3     1  UNL1        0.1231
     31 C         142.7793  138.1792  162.5936 C.3     1  UNL1        0.2525
     32 O         143.7725  139.0222  163.3371 O.3     1  UNL1       -0.4702
@<TRIPOS>BOND
     1    31    32    1
     2    32    19    1
     3    19    20   ar
     4    20    21   ar
     5    21    22   ar
     6    22    25    1
     7    25    26    1
     8    26    27    1
     9    27    28    1
    10    28    29    1
    11    29    30    1
    12    22    23   ar
    13    23    24   ar
    14    24     1    1
    15     1     3    1
    16     3     4   ar
    17     4     5   ar
    18     5     6   ar
    19     6     7    1
    20     6     8   ar
    21     8    10    1
    22    10    11   ar
    23    11    12   ar
    24    12    13   ar
    25    13    14   ar
    26    14    15   ar
    27    15    16   ar
    28    16    17   ar
    29    17    18   ar
    30     8     9   ar
    31    24    19   ar
    32     9     3   ar
    33    30    25    1
    34    18    10   ar
    35    18    13   ar
    36     1     2    1
@<TRIPOS>MOLECULE
*****
 32 36 0 0 0
SMALL
GASTEIGER

@<TRIPOS>ATOM
      1 N         144.0658  142.3724  164.3945 N.pl3   1  UNL1       -0.2801
      2 H         145.0154  142.5918  164.2549 H       1  UNL1        0.1552
      3 C         143.0007  143.1995  163.7376 C.ar    1  UNL1        0.2208
      4 N         142.7856  144.6214  164.1642 N.ar    1  UNL1       -0.2111
      5 C         141.7205  145.4485  163.5074 C.ar    1  UNL1        0.1147
      6 C         140.8705  144.8538  162.4240 C.ar    1  UNL1        0.0960
      7 CL        139.8053  145.6809  161.7672 Cl      1  UNL1       -0.0790
      8 C         141.0856  143.4318  161.9974 C.ar    1  UNL1        0.1138
      9 N         142.1506  142.6048  162.6543 N.ar    1  UNL1       -0.2111
     10 C         140.2355  142.8370  160.9141 C.ar    1  UNL1        0.1031
     11 C         140.1612  143.3094  159.4924 C.ar    1  UNL1        0.1196
     12 N         139.1903  142.4298  158.7618 N.ar    1  UNL1       -0.2248
     13 C         138.6647  141.4138  159.7321 C.ar    1  UNL1        0.1479
     14 C         137.6812  140.2919  159.5762 C.ar    1  UNL1        0.0374
     15 C         137.3438  139.4217  160.7504 C.ar    1  UNL1        0.0046
     16 C         137.9898  139.6734  162.0806 C.ar    1  UNL1        0.0191
     17 C         138.9732  140.7952  162.2365 C.ar    1  UNL1        0.0815
     18 N         139.3106  141.6654  161.0622 N.ar    1  UNL1       -0.2874
     19 C         144.0706  139.8175  164.8659 C.ar    1  UNL1        0.1521
     20 C         143.6889  138.6562  165.7354 C.ar    1  UNL1        0.0395
     21 C         142.9209  138.8887  167.0028 C.ar    1  UNL1        0.0177
     22 C         142.5346  140.2824  167.4007 C.ar    1  UNL1        0.0494
     23 C         142.9162  141.4436  166.5312 C.ar    1  UNL1        0.0323
     24 C         143.6842  141.2112  165.2638 C.ar    1  UNL1        0.0861
     25 N         141.7666  140.5149  168.6680 N.pl3   1  UNL1       -0.3027
     26 C         142.4743  141.0134  169.8931 C.3     1  UNL1        0.1231
     27 C         141.7063  141.2459  171.1604 C.3     1  UNL1        0.1636
     28 O         140.2306  140.9799  171.2026 O.3     1  UNL1       -0.3501
     29 C         139.5230  140.4814  169.9776 C.3     1  UNL1        0.1636
     30 C         140.2911  140.2489  168.7103 C.3     1  UNL1        0.1231
     31 C         144.1108  139.4589  162.2930 C.3     1  UNL1        0.2525
     32 O         144.8385  139.5850  163.5986 O.3     1  UNL1       -0.4702
@<TRIPOS>BOND
     1    31    32    1
     2    32    19    1
     3    19    20   ar
     4    20    21   ar
     5    21    22   ar
     6    22    25    1
     7    25    26    1
     8    26    27    1
     9    27    28    1
    10    28    29    1
    11    29    30    1
    12    22    23   ar
    13    23    24   ar
    14    24     1    1
    15     1     3    1
    16     3     4   ar
    17     4     5   ar
    18     5     6   ar
    19     6     7    1
    20     6     8   ar
    21     8    10    1
    22    10    11   ar
    23    11    12   ar
    24    12    13   ar
    25    13    14   ar
    26    14    15   ar
    27    15    16   ar
    28    16    17   ar
    29    17    18   ar
    30     8     9   ar
    31    24    19   ar
    32     9     3   ar
    33    30    25    1
    34    18    10   ar
    35    18    13   ar
    36     1     2    1
@<TRIPOS>MOLECULE
*****
 32 36 0 0 0
SMALL
GASTEIGER

@<TRIPOS>ATOM
      1 N         143.9060  143.0381  160.7906 N.pl3   1  UNL1       -0.2801
      2 H         144.6458  143.1922  160.1596 H       1  UNL1        0.1552
      3 C         144.0443  142.0070  161.8712 C.ar    1  UNL1        0.2208
      4 N         145.2700  141.9864  162.7357 N.ar    1  UNL1       -0.2111
      5 C         145.4083  140.9553  163.8163 C.ar    1  UNL1        0.1147
      6 C         144.3210  139.9449  164.0324 C.ar    1  UNL1        0.0960
      7 CL        144.4593  138.9138  165.1130 Cl      1  UNL1       -0.0790
      8 C         143.0953  139.9655  163.1679 C.ar    1  UNL1        0.1138
      9 N         142.9570  140.9966  162.0874 N.ar    1  UNL1       -0.2111
     10 C         142.0079  138.9551  163.3840 C.ar    1  UNL1        0.1031
     11 C         141.8382  137.6681  162.6324 C.ar    1  UNL1        0.1196
     12 N         140.6248  136.9718  163.1735 N.ar    1  UNL1       -0.2248
     13 C         140.0447  137.8284  164.2597 C.ar    1  UNL1        0.1479
     14 C         138.8485  137.6507  165.1471 C.ar    1  UNL1        0.0374
     15 C         138.5071  138.6986  166.1645 C.ar    1  UNL1        0.0046
     16 C         139.3619  139.9243  166.2946 C.ar    1  UNL1        0.0191
     17 C         140.5581  140.1021  165.4073 C.ar    1  UNL1        0.0815
     18 N         140.8995  139.0541  164.3898 N.ar    1  UNL1       -0.2874
     19 C         142.0242  144.4507  161.8922 C.ar    1  UNL1        0.1521
     20 C         140.7586  145.2471  161.7729 C.ar    1  UNL1        0.0395
     21 C         140.1094  145.4274  160.4327 C.ar    1  UNL1        0.0177
     22 C         140.7257  144.8112  159.2119 C.ar    1  UNL1        0.0494
     23 C         141.9912  144.0148  159.3312 C.ar    1  UNL1        0.0323
     24 C         142.6405  143.8345  160.6714 C.ar    1  UNL1        0.0861
     25 N         140.0765  144.9914  157.8717 N.pl3   1  UNL1       -0.3027
     26 C         140.0412  146.3476  157.2317 C.3     1  UNL1        0.1231
     27 C         139.3920  146.5278  155.8915 C.3     1  UNL1        0.1636
     28 O         138.7781  145.3517  155.1914 O.3     1  UNL1       -0.3501
     29 C         138.8134  143.9956  155.8314 C.3     1  UNL1        0.1636
     30 C         139.4627  143.8154  157.1716 C.3     1  UNL1        0.1231
     31 C         143.7146  145.2444  163.6984 C.3     1  UNL1        0.2525
     32 O         142.6734  144.2705  163.2324 O.3     1  UNL1       -0.4702
@<TRIPOS>BOND
     1    31    32    1
     2    32    19    1
     3    19    20   ar
     4    20    21   ar
     5    21    22   ar
     6    22    25    1
     7    25    26    1
     8    26    27    1
     9    27    28    1
    10    28    29    1
    11    29    30    1
    12    22    23   ar
    13    23    24   ar
    14    24     1    1
    15     1     3    1
    16     3     4   ar
    17     4     5   ar
    18     5     6   ar
    19     6     7    1
    20     6     8   ar
    21     8    10    1
    22    10    11   ar
    23    11    12   ar
    24    12    13   ar
    25    13    14   ar
    26    14    15   ar
    27    15    16   ar
    28    16    17   ar
    29    17    18   ar
    30     8     9   ar
    31    24    19   ar
    32     9     3   ar
    33    30    25    1
    34    18    10   ar
    35    18    13   ar
    36     1     2    1
