@<TRIPOS>MOLECULE
*****
 37 41 0 0 0
SMALL
GASTEIGER

@<TRIPOS>ATOM
      1 C         138.0625  142.6400  164.7586 C.3     1  UNL1        0.0768
      2 N         138.2214  141.2811  164.1436 N.3     1  UNL1       -0.2724
      3 C         137.8125  140.8885  162.7548 C.3     1  UNL1        0.0721
      4 C         138.1555  139.4410  162.5624 C.3     1  UNL1        0.0187
      5 C         138.7764  138.9390  163.8322 C.3     1  UNL1        0.0178
      6 C         138.8172  140.0762  164.8094 C.3     1  UNL1        0.0721
      7 C         139.2700  137.5446  164.0810 C.3     1  UNL1        0.0077
      8 C         140.6159  137.1231  163.5703 C.3     1  UNL1        0.0459
      9 C         141.7937  138.0408  163.7141 C.ar    1  UNL1        0.0603
     10 C         142.6039  138.0291  164.9764 C.ar    1  UNL1        0.0145
     11 C         143.7817  138.9468  165.1202 C.ar    1  UNL1       -0.0003
     12 C         144.1493  139.8762  164.0016 C.ar    1  UNL1        0.0092
     13 C         143.3391  139.8879  162.7393 C.ar    1  UNL1        0.1240
     14 N         142.1613  138.9702  162.5956 N.ar    1  UNL1       -0.2356
     15 N         143.7066  140.8173  161.6208 N.pl3   1  UNL1       -0.3184
     16 C         144.8844  141.7350  161.7646 C.3     1  UNL1        0.0885
     17 C         145.6946  141.7233  163.0269 C.3     1  UNL1        0.0260
     18 C         145.3271  140.7939  164.1454 C.3     1  UNL1        0.0309
     19 H         143.1749  140.8250  160.7923 H       1  UNL1        0.1482
     20 C         139.1775  143.6392  164.6681 C.3     1  UNL1        0.0439
     21 C         142.0267  142.1556  166.9986 C.ar    1  UNL1        0.0839
     22 C         143.2556  142.6110  166.2688 C.ar    1  UNL1        0.0192
     23 C         143.1252  143.4091  165.0055 C.ar    1  UNL1        0.0012
     24 C         141.7658  143.7518  164.4720 C.ar    1  UNL1       -0.0041
     25 C         140.5369  143.2965  165.2017 C.ar    1  UNL1       -0.0193
     26 C         140.6674  142.4983  166.4650 C.ar    1  UNL1        0.0150
     27 C         142.8499  138.1616  170.3530 C.3     1  UNL1        0.0756
     28 C         142.5356  139.5217  169.8038 C.ar    1  UNL1        0.1608
     29 N         142.1804  140.7369  170.6082 N.ar    1  UNL1       -0.2143
     30 C         141.9466  141.8715  169.6553 C.ar    1  UNL1        0.1424
     31 C         141.5684  143.2739  170.0300 C.3     1  UNL1        0.0738
     32 N         142.1572  141.3575  168.2619 N.ar    1  UNL1       -0.2150
     33 N         142.5212  139.9052  168.3537 N.ar    1  UNL1       -0.1491
     34 C         138.9333  144.9812  164.0441 C.3     1  UNL1        0.0474
     35 C         139.0777  145.1564  162.5614 C.2     1  UNL1        0.0507
     36 O         139.8411  146.3265  162.0152 O.co2   1  UNL1       -0.5492
     37 O         138.4589  144.1615  161.6248 O.co2   1  UNL1       -0.5492
@<TRIPOS>UNITY_ATOM_ATTR
36 1
charge -1
@<TRIPOS>BOND
     1    27    28    1
     2    28    29   ar
     3    29    30   ar
     4    30    31    1
     5    30    32   ar
     6    32    21    1
     7    21    22   ar
     8    22    23   ar
     9    23    24   ar
    10    24    25   ar
    11    25    20    1
    12    20    34    1
    13    34    35    1
    14    35    36   ar
    15    35    37   ar
    16    20     1    1
    17     1     2    1
    18     2     3    1
    19     3     4    1
    20     4     5    1
    21     5     7    1
    22     7     8    1
    23     8     9    1
    24     9    10   ar
    25    10    11   ar
    26    11    12   ar
    27    12    13   ar
    28    13    14   ar
    29    13    15    1
    30    15    16    1
    31    16    17    1
    32    17    18    1
    33     5     6    1
    34    25    26   ar
    35    32    33   ar
    36    33    28   ar
    37    26    21   ar
    38     6     2    1
    39    14     9   ar
    40    18    12    1
    41    15    19    1
@<TRIPOS>MOLECULE
*****
 37 41 0 0 0
SMALL
GASTEIGER

@<TRIPOS>ATOM
      1 C         142.3532  140.9205  168.0362 C.3     1  UNL1        0.0768
      2 N         143.0034  141.0779  166.6936 N.3     1  UNL1       -0.2724
      3 C         143.3919  142.3753  166.0487 C.3     1  UNL1        0.0721
      4 C         144.0079  142.0647  164.7167 C.3     1  UNL1        0.0187
      5 C         144.0001  140.5753  164.5384 C.3     1  UNL1        0.0178
      6 C         143.3793  139.9655  165.7602 C.3     1  UNL1        0.0721
      7 C         144.5215  139.8272  163.3475 C.3     1  UNL1        0.0077
      8 C         143.8503  138.5611  162.9044 C.3     1  UNL1        0.0459
      9 C         142.3758  138.5505  162.6291 C.ar    1  UNL1        0.0603
     10 C         141.4976  137.5270  163.2857 C.ar    1  UNL1        0.0145
     11 C         140.0231  137.5164  163.0104 C.ar    1  UNL1       -0.0003
     12 C         139.4268  138.5293  162.0784 C.ar    1  UNL1        0.0092
     13 C         140.3051  139.5527  161.4217 C.ar    1  UNL1        0.1240
     14 N         141.7796  139.5633  161.6971 N.ar    1  UNL1       -0.2356
     15 N         139.7089  140.5656  160.4897 N.pl3   1  UNL1       -0.3184
     16 C         138.2344  140.5550  160.2144 C.3     1  UNL1        0.0885
     17 C         137.3562  139.5315  160.8711 C.3     1  UNL1        0.0260
     18 C         137.9524  138.5186  161.8031 C.3     1  UNL1        0.0309
     19 H         140.2853  141.2373  160.0588 H       1  UNL1        0.1482
     20 C         140.9215  140.4828  168.1295 C.3     1  UNL1        0.0439
     21 C         139.2441  141.8861  164.8177 C.ar    1  UNL1        0.0839
     22 C         138.2276  140.8184  164.5405 C.ar    1  UNL1        0.0192
     23 C         138.1090  139.6389  165.4595 C.ar    1  UNL1        0.0012
     24 C         139.0070  139.5270  166.6558 C.ar    1  UNL1       -0.0041
     25 C         140.0235  140.5947  166.9331 C.ar    1  UNL1       -0.0193
     26 C         140.1421  141.7742  166.0140 C.ar    1  UNL1        0.0150
     27 C         140.1792  144.8549  160.5525 C.3     1  UNL1        0.0756
     28 C         139.7925  144.4302  161.9382 C.ar    1  UNL1        0.1608
     29 N         139.2977  145.3312  163.0306 N.ar    1  UNL1       -0.2143
     30 C         139.0320  144.4878  164.2423 C.ar    1  UNL1        0.1424
     31 C         138.5248  144.9802  165.5653 C.3     1  UNL1        0.0738
     32 N         139.3627  143.0656  163.8987 N.ar    1  UNL1       -0.2150
     33 N         139.8326  143.0300  162.4747 N.ar    1  UNL1       -0.1491
     34 C         140.3878  139.9331  169.4190 C.3     1  UNL1        0.0474
     35 C         139.2241  140.5976  170.0930 C.2     1  UNL1        0.0507
     36 O         139.3285  142.0282  170.5320 O.co2   1  UNL1       -0.5492
     37 O         137.9561  139.8315  170.3281 O.co2   1  UNL1       -0.5492
@<TRIPOS>UNITY_ATOM_ATTR
36 1
charge -1
@<TRIPOS>BOND
     1    27    28    1
     2    28    29   ar
     3    29    30   ar
     4    30    31    1
     5    30    32   ar
     6    32    21    1
     7    21    22   ar
     8    22    23   ar
     9    23    24   ar
    10    24    25   ar
    11    25    20    1
    12    20    34    1
    13    34    35    1
    14    35    36   ar
    15    35    37   ar
    16    20     1    1
    17     1     2    1
    18     2     3    1
    19     3     4    1
    20     4     5    1
    21     5     7    1
    22     7     8    1
    23     8     9    1
    24     9    10   ar
    25    10    11   ar
    26    11    12   ar
    27    12    13   ar
    28    13    14   ar
    29    13    15    1
    30    15    16    1
    31    16    17    1
    32    17    18    1
    33     5     6    1
    34    25    26   ar
    35    32    33   ar
    36    33    28   ar
    37    26    21   ar
    38     6     2    1
    39    14     9   ar
    40    18    12    1
    41    15    19    1
@<TRIPOS>MOLECULE
*****
 37 41 0 0 0
SMALL
GASTEIGER

@<TRIPOS>ATOM
      1 C         138.2380  139.0415  163.1182 C.3     1  UNL1        0.0768
      2 N         138.0643  140.5274  163.0088 N.3     1  UNL1       -0.2724
      3 C         138.0879  141.3269  161.7398 C.3     1  UNL1        0.0721
      4 C         137.8747  142.7683  162.0960 C.3     1  UNL1        0.0187
      5 C         137.7194  142.8597  163.5851 C.3     1  UNL1        0.0178
      6 C         137.8366  141.4747  164.1493 C.3     1  UNL1        0.0721
      7 C         137.4876  144.1155  164.3720 C.3     1  UNL1        0.0077
      8 C         138.5818  144.6741  165.2324 C.3     1  UNL1        0.0459
      9 C         139.9400  144.0372  165.2262 C.ar    1  UNL1        0.0603
     10 C         140.3067  143.0425  166.2874 C.ar    1  UNL1        0.0145
     11 C         141.6647  142.4057  166.2813 C.ar    1  UNL1       -0.0003
     12 C         142.6561  142.7634  165.2139 C.ar    1  UNL1        0.0092
     13 C         142.2894  143.7581  164.1527 C.ar    1  UNL1        0.1240
     14 N         140.9313  144.3950  164.1589 N.ar    1  UNL1       -0.2356
     15 N         143.2807  144.1159  163.0854 N.pl3   1  UNL1       -0.3184
     16 C         144.6387  143.4791  163.0793 C.3     1  UNL1        0.0885
     17 C         145.0054  142.4844  164.1404 C.3     1  UNL1        0.0260
     18 C         144.0141  142.1266  165.2078 C.3     1  UNL1        0.0309
     19 H         143.0400  144.7688  162.3889 H       1  UNL1        0.1482
     20 C         139.2164  138.4711  164.1017 C.3     1  UNL1        0.0439
     21 C         142.6756  139.3017  162.3426 C.ar    1  UNL1        0.0839
     22 C         143.6354  139.0335  163.4638 C.ar    1  UNL1        0.0192
     23 C         143.1222  138.5779  164.7976 C.ar    1  UNL1        0.0012
     24 C         141.6492  138.3904  165.0102 C.ar    1  UNL1       -0.0041
     25 C         140.6894  138.6586  163.8890 C.ar    1  UNL1       -0.0193
     26 C         141.2026  139.1142  162.5553 C.ar    1  UNL1        0.0150
     27 C         144.6247  142.3265  158.4783 C.3     1  UNL1        0.0756
     28 C         144.0847  141.1477  159.2326 C.ar    1  UNL1        0.1608
     29 N         143.8723  139.7695  158.6800 N.ar    1  UNL1       -0.2143
     30 C         143.3186  138.9102  159.7778 C.ar    1  UNL1        0.1424
     31 C         142.9580  137.4586  159.6644 C.3     1  UNL1        0.0738
     32 N         143.1888  139.7574  161.0089 N.ar    1  UNL1       -0.2150
     33 N         143.6622  141.1402  160.6719 N.ar    1  UNL1       -0.1491
     34 C         138.7218  137.7132  165.2980 C.3     1  UNL1        0.0474
     35 C         138.1980  138.4550  166.4918 C.2     1  UNL1        0.0507
     36 O         138.9080  139.6815  166.9836 O.co2   1  UNL1       -0.5492
     37 O         136.9642  137.9705  167.1939 O.co2   1  UNL1       -0.5492
@<TRIPOS>UNITY_ATOM_ATTR
36 1
charge -1
@<TRIPOS>BOND
     1    27    28    1
     2    28    29   ar
     3    29    30   ar
     4    30    31    1
     5    30    32   ar
     6    32    21    1
     7    21    22   ar
     8    22    23   ar
     9    23    24   ar
    10    24    25   ar
    11    25    20    1
    12    20    34    1
    13    34    35    1
    14    35    36   ar
    15    35    37   ar
    16    20     1    1
    17     1     2    1
    18     2     3    1
    19     3     4    1
    20     4     5    1
    21     5     7    1
    22     7     8    1
    23     8     9    1
    24     9    10   ar
    25    10    11   ar
    26    11    12   ar
    27    12    13   ar
    28    13    14   ar
    29    13    15    1
    30    15    16    1
    31    16    17    1
    32    17    18    1
    33     5     6    1
    34    25    26   ar
    35    32    33   ar
    36    33    28   ar
    37    26    21   ar
    38     6     2    1
    39    14     9   ar
    40    18    12    1
    41    15    19    1
@<TRIPOS>MOLECULE
*****
 37 41 0 0 0
SMALL
GASTEIGER

@<TRIPOS>ATOM
      1 C         142.3004  141.2304  168.0972 C.3     1  UNL1        0.0768
      2 N         142.8571  140.4442  166.9475 N.3     1  UNL1       -0.2724
      3 C         143.0044  138.9525  166.8886 C.3     1  UNL1        0.0721
      4 C         143.6026  138.5979  165.5595 C.3     1  UNL1        0.0187
      5 C         143.8250  139.8703  164.7970 C.3     1  UNL1        0.0178
      6 C         143.3643  141.0114  165.6548 C.3     1  UNL1        0.0721
      7 C         144.4061  139.9821  163.4187 C.3     1  UNL1        0.0077
      8 C         144.8821  141.3109  162.9110 C.3     1  UNL1        0.0459
      9 C         143.9451  142.2032  162.1521 C.ar    1  UNL1        0.0603
     10 C         143.9084  142.1509  160.6535 C.ar    1  UNL1        0.0145
     11 C         142.9715  143.0432  159.8946 C.ar    1  UNL1       -0.0003
     12 C         142.0713  143.9880  160.6344 C.ar    1  UNL1        0.0092
     13 C         142.1080  144.0403  162.1330 C.ar    1  UNL1        0.1240
     14 N         143.0450  143.1479  162.8919 N.ar    1  UNL1       -0.2356
     15 N         141.2079  144.9850  162.8728 N.pl3   1  UNL1       -0.3184
     16 C         140.2710  145.8773  162.1139 C.3     1  UNL1        0.0885
     17 C         140.2342  145.8250  160.6153 C.3     1  UNL1        0.0260
     18 C         141.1344  144.8803  159.8755 C.3     1  UNL1        0.0309
     19 H         141.2321  145.0193  163.8564 H       1  UNL1        0.1482
     20 C         140.8172  141.4035  168.2392 C.3     1  UNL1        0.0439
     21 C         138.7592  141.0173  164.8679 C.ar    1  UNL1        0.0839
     22 C         138.0466  139.7212  165.1176 C.ar    1  UNL1        0.0192
     23 C         138.2576  138.9858  166.4078 C.ar    1  UNL1        0.0012
     24 C         139.1811  139.5466  167.4483 C.ar    1  UNL1       -0.0041
     25 C         139.8937  140.8427  167.1986 C.ar    1  UNL1       -0.0193
     26 C         139.6827  141.5781  165.9084 C.ar    1  UNL1        0.0150
     27 C         138.5914  142.1806  159.7201 C.3     1  UNL1        0.0756
     28 C         138.4710  142.2874  161.2115 C.ar    1  UNL1        0.1608
     29 N         137.9759  143.4812  161.9728 N.ar    1  UNL1       -0.2143
     30 C         138.0236  143.1508  163.4352 C.ar    1  UNL1        0.1424
     31 C         137.6179  144.0589  164.5580 C.3     1  UNL1        0.0738
     32 N         138.5482  141.7527  163.5777 N.ar    1  UNL1       -0.2150
     33 N         138.8247  141.2191  162.2033 N.ar    1  UNL1       -0.1491
     34 C         140.2575  142.1373  169.4217 C.3     1  UNL1        0.0474
     35 C         140.1294  141.4414  170.7443 C.2     1  UNL1        0.0507
     36 O         139.6475  140.0219  170.8013 O.co2   1  UNL1       -0.5492
     37 O         140.4830  142.1648  172.0098 O.co2   1  UNL1       -0.5492
@<TRIPOS>UNITY_ATOM_ATTR
36 1
charge -1
@<TRIPOS>BOND
     1    27    28    1
     2    28    29   ar
     3    29    30   ar
     4    30    31    1
     5    30    32   ar
     6    32    21    1
     7    21    22   ar
     8    22    23   ar
     9    23    24   ar
    10    24    25   ar
    11    25    20    1
    12    20    34    1
    13    34    35    1
    14    35    36   ar
    15    35    37   ar
    16    20     1    1
    17     1     2    1
    18     2     3    1
    19     3     4    1
    20     4     5    1
    21     5     7    1
    22     7     8    1
    23     8     9    1
    24     9    10   ar
    25    10    11   ar
    26    11    12   ar
    27    12    13   ar
    28    13    14   ar
    29    13    15    1
    30    15    16    1
    31    16    17    1
    32    17    18    1
    33     5     6    1
    34    25    26   ar
    35    32    33   ar
    36    33    28   ar
    37    26    21   ar
    38     6     2    1
    39    14     9   ar
    40    18    12    1
    41    15    19    1
@<TRIPOS>MOLECULE
*****
 37 41 0 0 0
SMALL
GASTEIGER

@<TRIPOS>ATOM
      1 C         143.9013  143.7069  164.4971 C.3     1  UNL1        0.0768
      2 N         142.5648  144.2194  164.0485 N.3     1  UNL1       -0.2724
      3 C         142.2903  144.9764  162.7829 C.3     1  UNL1        0.0721
      4 C         140.8241  145.2898  162.7389 C.3     1  UNL1        0.0187
      5 C         140.1924  144.7265  163.9773 C.3     1  UNL1        0.0178
      6 C         141.2682  144.0649  164.7866 C.3     1  UNL1        0.0721
      7 C         138.7399  144.8100  164.3423 C.3     1  UNL1        0.0077
      8 C         137.7264  144.0160  163.5726 C.3     1  UNL1        0.0459
      9 C         137.9311  142.5456  163.3582 C.ar    1  UNL1        0.0603
     10 C         137.7939  141.9619  161.9833 C.ar    1  UNL1        0.0145
     11 C         137.9986  140.4915  161.7689 C.ar    1  UNL1       -0.0003
     12 C         138.3405  139.6047  162.9294 C.ar    1  UNL1        0.0092
     13 C         138.4777  140.1884  164.3044 C.ar    1  UNL1        0.1240
     14 N         138.2730  141.6589  164.5188 N.ar    1  UNL1       -0.2356
     15 N         138.8196  139.3017  165.4649 N.pl3   1  UNL1       -0.3184
     16 C         139.0242  137.8313  165.2505 C.3     1  UNL1        0.0885
     17 C         138.8870  137.2476  163.8756 C.3     1  UNL1        0.0260
     18 C         138.5452  138.1343  162.7150 C.3     1  UNL1        0.0309
     19 H         138.9096  139.6848  166.3673 H       1  UNL1        0.1482
     20 C         144.3343  142.3187  164.1290 C.3     1  UNL1        0.0439
     21 C         142.5788  140.2009  166.9897 C.ar    1  UNL1        0.0839
     22 C         143.0573  138.8195  166.6539 C.ar    1  UNL1        0.0192
     23 C         143.9614  138.6044  165.4765 C.ar    1  UNL1        0.0012
     24 C         144.3871  139.7708  164.6349 C.ar    1  UNL1       -0.0041
     25 C         143.9086  141.1523  164.9706 C.ar    1  UNL1       -0.0193
     26 C         143.0044  141.3673  166.1480 C.ar    1  UNL1        0.0150
     27 C         138.3361  140.1815  170.1329 C.3     1  UNL1        0.0756
     28 C         139.7245  140.4070  169.6119 C.ar    1  UNL1        0.1608
     29 N         140.8422  141.0867  170.3460 N.ar    1  UNL1       -0.2143
     30 C         142.0474  141.0922  169.4531 C.ar    1  UNL1        0.1424
     31 C         143.3898  141.6722  169.7874 C.3     1  UNL1        0.0738
     32 N         141.6747  140.4159  168.1671 N.ar    1  UNL1       -0.2150
     33 N         140.2391  139.9925  168.2652 N.ar    1  UNL1       -0.1491
     34 C         145.1929  142.0969  162.9192 C.3     1  UNL1        0.0474
     35 C         144.5572  141.8310  161.5868 C.2     1  UNL1        0.0507
     36 O         144.2248  140.4255  161.1815 O.co2   1  UNL1       -0.5492
     37 O         144.2540  142.9705  160.6597 O.co2   1  UNL1       -0.5492
@<TRIPOS>UNITY_ATOM_ATTR
36 1
charge -1
@<TRIPOS>BOND
     1    27    28    1
     2    28    29   ar
     3    29    30   ar
     4    30    31    1
     5    30    32   ar
     6    32    21    1
     7    21    22   ar
     8    22    23   ar
     9    23    24   ar
    10    24    25   ar
    11    25    20    1
    12    20    34    1
    13    34    35    1
    14    35    36   ar
    15    35    37   ar
    16    20     1    1
    17     1     2    1
    18     2     3    1
    19     3     4    1
    20     4     5    1
    21     5     7    1
    22     7     8    1
    23     8     9    1
    24     9    10   ar
    25    10    11   ar
    26    11    12   ar
    27    12    13   ar
    28    13    14   ar
    29    13    15    1
    30    15    16    1
    31    16    17    1
    32    17    18    1
    33     5     6    1
    34    25    26   ar
    35    32    33   ar
    36    33    28   ar
    37    26    21   ar
    38     6     2    1
    39    14     9   ar
    40    18    12    1
    41    15    19    1
@<TRIPOS>MOLECULE
*****
 37 41 0 0 0
SMALL
GASTEIGER

@<TRIPOS>ATOM
      1 C         142.9821  141.3263  166.7193 C.3     1  UNL1        0.0768
      2 N         141.6260  140.7358  166.9689 N.3     1  UNL1       -0.2724
      3 C         140.8005  140.9158  168.2084 C.3     1  UNL1        0.0721
      4 C         139.5216  140.1529  168.0284 C.3     1  UNL1        0.0187
      5 C         139.5567  139.5013  166.6778 C.3     1  UNL1        0.0178
      6 C         140.8573  139.8616  166.0230 C.3     1  UNL1        0.0721
      7 C         138.4803  138.6406  166.0859 C.3     1  UNL1        0.0077
      8 C         138.8369  137.5583  165.1106 C.3     1  UNL1        0.0459
      9 C         139.2872  137.9158  163.7251 C.ar    1  UNL1        0.0603
     10 C         138.3858  138.7069  162.8242 C.ar    1  UNL1        0.0145
     11 C         138.8360  139.0643  161.4388 C.ar    1  UNL1       -0.0003
     12 C         140.1877  138.6307  160.9542 C.ar    1  UNL1        0.0092
     13 C         141.0892  137.8396  161.8550 C.ar    1  UNL1        0.1240
     14 N         140.6389  137.4821  163.2405 N.ar    1  UNL1       -0.2356
     15 N         142.4409  137.4059  161.3704 N.pl3   1  UNL1       -0.3184
     16 C         142.8911  137.7634  159.9850 C.3     1  UNL1        0.0885
     17 C         141.9897  138.5545  159.0842 C.3     1  UNL1        0.0260
     18 C         140.6380  138.9881  159.5687 C.3     1  UNL1        0.0309
     19 H         143.0325  136.8867  161.9617 H       1  UNL1        0.1482
     20 C         143.4800  141.4942  165.3143 C.3     1  UNL1        0.0439
     21 C         141.2170  143.4274  162.6891 C.ar    1  UNL1        0.0839
     22 C         141.8418  144.7906  162.7257 C.ar    1  UNL1        0.0192
     23 C         143.0127  145.0550  163.6252 C.ar    1  UNL1        0.0012
     24 C         143.5587  143.9562  164.4881 C.ar    1  UNL1       -0.0041
     25 C         142.9339  142.5930  164.4514 C.ar    1  UNL1       -0.0193
     26 C         141.7630  142.3286  163.5519 C.ar    1  UNL1        0.0150
     27 C         138.3073  141.9732  158.5298 C.3     1  UNL1        0.0756
     28 C         138.7086  142.4946  159.8778 C.ar    1  UNL1        0.1608
     29 N         137.7798  143.0178  160.9330 N.ar    1  UNL1       -0.2143
     30 C         138.6064  143.4309  162.1146 C.ar    1  UNL1        0.1424
     31 C         138.0848  144.0102  163.3962 C.3     1  UNL1        0.0738
     32 N         140.0461  143.1631  161.7896 N.ar    1  UNL1       -0.2150
     33 N         140.1092  142.5844  160.4072 N.ar    1  UNL1       -0.1491
     34 C         144.5238  140.5634  164.7722 C.3     1  UNL1        0.0474
     35 C         144.9936  140.7070  163.3549 C.2     1  UNL1        0.0507
     36 O         144.3705  139.8785  162.2707 O.co2   1  UNL1       -0.5492
     37 O         146.0864  141.6790  163.0218 O.co2   1  UNL1       -0.5492
@<TRIPOS>UNITY_ATOM_ATTR
36 1
charge -1
@<TRIPOS>BOND
     1    27    28    1
     2    28    29   ar
     3    29    30   ar
     4    30    31    1
     5    30    32   ar
     6    32    21    1
     7    21    22   ar
     8    22    23   ar
     9    23    24   ar
    10    24    25   ar
    11    25    20    1
    12    20    34    1
    13    34    35    1
    14    35    36   ar
    15    35    37   ar
    16    20     1    1
    17     1     2    1
    18     2     3    1
    19     3     4    1
    20     4     5    1
    21     5     7    1
    22     7     8    1
    23     8     9    1
    24     9    10   ar
    25    10    11   ar
    26    11    12   ar
    27    12    13   ar
    28    13    14   ar
    29    13    15    1
    30    15    16    1
    31    16    17    1
    32    17    18    1
    33     5     6    1
    34    25    26   ar
    35    32    33   ar
    36    33    28   ar
    37    26    21   ar
    38     6     2    1
    39    14     9   ar
    40    18    12    1
    41    15    19    1
@<TRIPOS>MOLECULE
*****
 37 41 0 0 0
SMALL
GASTEIGER

@<TRIPOS>ATOM
      1 C         140.2112  141.5940  167.4966 C.3     1  UNL1        0.0768
      2 N         139.5899  140.4157  166.8069 N.3     1  UNL1       -0.2724
      3 C         138.6633  139.4157  167.4324 C.3     1  UNL1        0.0721
      4 C         138.2869  138.4125  166.3827 C.3     1  UNL1        0.0187
      5 C         138.9809  138.7926  165.1084 C.3     1  UNL1        0.0178
      6 C         139.7862  140.0306  165.3705 C.3     1  UNL1        0.0721
      7 C         138.8862  138.0627  163.8013 C.3     1  UNL1        0.0077
      8 C         140.1341  137.6107  163.1027 C.3     1  UNL1        0.0459
      9 C         141.4226  138.3485  163.3164 C.ar    1  UNL1        0.0603
     10 C         142.2994  138.0040  164.4837 C.ar    1  UNL1        0.0145
     11 C         143.5877  138.7418  164.6974 C.ar    1  UNL1       -0.0003
     12 C         143.9994  139.8241  163.7439 C.ar    1  UNL1        0.0092
     13 C         143.1225  140.1686  162.5766 C.ar    1  UNL1        0.1240
     14 N         141.8341  139.4308  162.3629 N.ar    1  UNL1       -0.2356
     15 N         143.5341  141.2509  161.6231 N.pl3   1  UNL1       -0.3184
     16 C         144.8225  141.9887  161.8369 C.3     1  UNL1        0.0885
     17 C         145.6993  141.6442  163.0041 C.3     1  UNL1        0.0260
     18 C         145.2877  140.5619  163.9576 C.3     1  UNL1        0.0309
     19 H         142.9586  141.4771  160.8570 H       1  UNL1        0.1482
     20 C         141.6970  141.7943  167.4473 C.3     1  UNL1        0.0439
     21 C         142.0648  143.9529  164.1374 C.ar    1  UNL1        0.0839
     22 C         143.5221  144.3046  164.1889 C.ar    1  UNL1        0.0192
     23 C         144.3710  143.8196  165.3265 C.ar    1  UNL1        0.0012
     24 C         143.7626  142.9828  166.4126 C.ar    1  UNL1       -0.0041
     25 C         142.3053  142.6311  166.3611 C.ar    1  UNL1       -0.0193
     26 C         141.4564  143.1161  165.2236 C.ar    1  UNL1        0.0150
     27 C         140.4777  145.3738  159.3060 C.3     1  UNL1        0.0756
     28 C         140.4864  145.0910  160.7791 C.ar    1  UNL1        0.1608
     29 N         139.3328  145.2776  161.7195 N.ar    1  UNL1       -0.2143
     30 C         139.7836  144.8739  163.0920 C.ar    1  UNL1        0.1424
     31 C         138.9488  144.9014  164.3379 C.3     1  UNL1        0.0738
     32 N         141.2159  144.4379  162.9999 N.ar    1  UNL1       -0.2150
     33 N         141.6502  144.5721  161.5704 N.ar    1  UNL1       -0.1491
     34 C         142.5743  141.1578  168.4842 C.3     1  UNL1        0.0474
     35 C         142.3760  139.7173  168.8528 C.2     1  UNL1        0.0507
     36 O         141.3947  139.3457  169.9247 O.co2   1  UNL1       -0.5492
     37 O         143.1590  138.6485  168.1495 O.co2   1  UNL1       -0.5492
@<TRIPOS>UNITY_ATOM_ATTR
36 1
charge -1
@<TRIPOS>BOND
     1    27    28    1
     2    28    29   ar
     3    29    30   ar
     4    30    31    1
     5    30    32   ar
     6    32    21    1
     7    21    22   ar
     8    22    23   ar
     9    23    24   ar
    10    24    25   ar
    11    25    20    1
    12    20    34    1
    13    34    35    1
    14    35    36   ar
    15    35    37   ar
    16    20     1    1
    17     1     2    1
    18     2     3    1
    19     3     4    1
    20     4     5    1
    21     5     7    1
    22     7     8    1
    23     8     9    1
    24     9    10   ar
    25    10    11   ar
    26    11    12   ar
    27    12    13   ar
    28    13    14   ar
    29    13    15    1
    30    15    16    1
    31    16    17    1
    32    17    18    1
    33     5     6    1
    34    25    26   ar
    35    32    33   ar
    36    33    28   ar
    37    26    21   ar
    38     6     2    1
    39    14     9   ar
    40    18    12    1
    41    15    19    1
@<TRIPOS>MOLECULE
*****
 37 41 0 0 0
SMALL
GASTEIGER

@<TRIPOS>ATOM
      1 C         140.4004  140.2450  168.7031 C.3     1  UNL1        0.0768
      2 N         139.6303  139.5393  167.6266 N.3     1  UNL1       -0.2724
      3 C         138.1643  139.2228  167.6542 C.3     1  UNL1        0.0721
      4 C         137.8190  138.5140  166.3781 C.3     1  UNL1        0.0187
      5 C         139.0716  138.3924  165.5618 C.3     1  UNL1        0.0178
      6 C         140.1910  139.0260  166.3335 C.3     1  UNL1        0.0721
      7 C         139.1848  137.7500  164.2112 C.3     1  UNL1        0.0077
      8 C         139.3618  138.6007  162.9885 C.3     1  UNL1        0.0459
      9 C         140.6751  139.2776  162.7295 C.ar    1  UNL1        0.0603
     10 C         141.9584  138.5826  163.0762 C.ar    1  UNL1        0.0145
     11 C         143.2716  139.2595  162.8172 C.ar    1  UNL1       -0.0003
     12 C         143.3017  140.6315  162.2116 C.ar    1  UNL1        0.0092
     13 C         142.0185  141.3266  161.8650 C.ar    1  UNL1        0.1240
     14 N         140.7052  140.6496  162.1239 N.ar    1  UNL1       -0.2356
     15 N         142.0485  142.6985  161.2594 N.pl3   1  UNL1       -0.3184
     16 C         143.3618  143.3754  161.0004 C.3     1  UNL1        0.0885
     17 C         144.6450  142.6803  161.3470 C.3     1  UNL1        0.0260
     18 C         144.6150  141.3084  161.9526 C.3     1  UNL1        0.0309
     19 H         141.2063  143.1547  161.0319 H       1  UNL1        0.1482
     20 C         140.7107  141.7064  168.5681 C.3     1  UNL1        0.0439
     21 C         141.1511  143.3602  164.9874 C.ar    1  UNL1        0.0839
     22 C         142.6371  143.2595  164.8095 C.ar    1  UNL1        0.0192
     23 C         143.4810  142.6412  165.8844 C.ar    1  UNL1        0.0012
     24 C         142.8389  142.1235  167.1373 C.ar    1  UNL1       -0.0041
     25 C         141.3528  142.2241  167.3152 C.ar    1  UNL1       -0.0193
     26 C         140.5090  142.8425  166.2403 C.ar    1  UNL1        0.0150
     27 C         139.4895  146.5407  161.1139 C.3     1  UNL1        0.0756
     28 C         139.5434  145.4404  162.1320 C.ar    1  UNL1        0.1608
     29 N         138.4737  144.4197  162.3846 N.ar    1  UNL1       -0.2143
     30 C         138.9457  143.5162  163.4850 C.ar    1  UNL1        0.1424
     31 C         138.1892  142.3543  164.0574 C.3     1  UNL1        0.0738
     32 N         140.3072  143.9785  163.9125 N.ar    1  UNL1       -0.2150
     33 N         140.6766  145.1678  163.0763 N.ar    1  UNL1       -0.1491
     34 C         140.3790  142.6499  169.6860 C.3     1  UNL1        0.0474
     35 C         141.1968  142.6401  170.9434 C.2     1  UNL1        0.0507
     36 O         142.5826  143.2145  170.9413 O.co2   1  UNL1       -0.5492
     37 O         140.6290  142.0559  172.2028 O.co2   1  UNL1       -0.5492
@<TRIPOS>UNITY_ATOM_ATTR
36 1
charge -1
@<TRIPOS>BOND
     1    27    28    1
     2    28    29   ar
     3    29    30   ar
     4    30    31    1
     5    30    32   ar
     6    32    21    1
     7    21    22   ar
     8    22    23   ar
     9    23    24   ar
    10    24    25   ar
    11    25    20    1
    12    20    34    1
    13    34    35    1
    14    35    36   ar
    15    35    37   ar
    16    20     1    1
    17     1     2    1
    18     2     3    1
    19     3     4    1
    20     4     5    1
    21     5     7    1
    22     7     8    1
    23     8     9    1
    24     9    10   ar
    25    10    11   ar
    26    11    12   ar
    27    12    13   ar
    28    13    14   ar
    29    13    15    1
    30    15    16    1
    31    16    17    1
    32    17    18    1
    33     5     6    1
    34    25    26   ar
    35    32    33   ar
    36    33    28   ar
    37    26    21   ar
    38     6     2    1
    39    14     9   ar
    40    18    12    1
    41    15    19    1
@<TRIPOS>MOLECULE
*****
 37 41 0 0 0
SMALL
GASTEIGER

@<TRIPOS>ATOM
      1 C         138.8962  144.1752  163.3954 C.3     1  UNL1        0.0768
      2 N         138.4553  142.8443  162.8621 N.3     1  UNL1       -0.2724
      3 C         137.4872  141.9071  163.5214 C.3     1  UNL1        0.0721
      4 C         137.3387  140.7005  162.6427 C.3     1  UNL1        0.0187
      5 C         138.2149  140.8919  161.4404 C.3     1  UNL1        0.0178
      6 C         138.9050  142.2169  161.5760 C.3     1  UNL1        0.0721
      7 C         138.3732  139.9278  160.3024 C.3     1  UNL1        0.0077
      8 C         139.2400  138.7141  160.4627 C.3     1  UNL1        0.0459
      9 C         140.0907  138.5566  161.6881 C.ar    1  UNL1        0.0603
     10 C         139.6143  137.7051  162.8275 C.ar    1  UNL1        0.0145
     11 C         140.4649  137.5476  164.0528 C.ar    1  UNL1       -0.0003
     12 C         141.7920  138.2415  164.1389 C.ar    1  UNL1        0.0092
     13 C         142.2684  139.0930  162.9996 C.ar    1  UNL1        0.1240
     14 N         141.4177  139.2505  161.7742 N.ar    1  UNL1       -0.2356
     15 N         143.5954  139.7869  163.0856 N.pl3   1  UNL1       -0.3184
     16 C         144.4461  139.6293  164.3110 C.3     1  UNL1        0.0885
     17 C         143.9697  138.7779  165.4503 C.3     1  UNL1        0.0260
     18 C         142.6426  138.0840  165.3643 C.3     1  UNL1        0.0309
     19 H         143.9081  140.3457  162.3378 H       1  UNL1        0.1482
     20 C         140.3563  144.5144  163.4512 C.3     1  UNL1        0.0439
     21 C         141.5736  142.2945  166.5074 C.ar    1  UNL1        0.0839
     22 C         143.0612  142.3492  166.3227 C.ar    1  UNL1        0.0192
     23 C         143.6472  143.1256  165.1809 C.ar    1  UNL1        0.0012
     24 C         142.7455  143.8473  164.2237 C.ar    1  UNL1       -0.0041
     25 C         141.2579  143.7926  164.4084 C.ar    1  UNL1       -0.0193
     26 C         140.6720  143.0162  165.5502 C.ar    1  UNL1        0.0150
     27 C         140.5829  140.4928  171.3709 C.3     1  UNL1        0.0756
     28 C         140.5322  140.6899  169.8847 C.ar    1  UNL1        0.1608
     29 N         139.6395  139.9566  168.9280 N.ar    1  UNL1       -0.2143
     30 C         139.9209  140.4684  167.5464 C.ar    1  UNL1        0.1424
     31 C         139.2530  140.0109  166.2836 C.3     1  UNL1        0.0738
     32 N         140.9876  141.5181  167.6492 N.ar    1  UNL1       -0.2150
     33 N         141.3654  141.6549  169.0944 N.ar    1  UNL1       -0.1491
     34 C         140.9147  145.5754  162.5498 C.3     1  UNL1        0.0474
     35 C         140.8910  145.3845  161.0622 C.2     1  UNL1        0.0507
     36 O         139.6835  145.7950  160.2725 O.co2   1  UNL1       -0.5492
     37 O         142.0747  144.7830  160.3643 O.co2   1  UNL1       -0.5492
@<TRIPOS>UNITY_ATOM_ATTR
36 1
charge -1
@<TRIPOS>BOND
     1    27    28    1
     2    28    29   ar
     3    29    30   ar
     4    30    31    1
     5    30    32   ar
     6    32    21    1
     7    21    22   ar
     8    22    23   ar
     9    23    24   ar
    10    24    25   ar
    11    25    20    1
    12    20    34    1
    13    34    35    1
    14    35    36   ar
    15    35    37   ar
    16    20     1    1
    17     1     2    1
    18     2     3    1
    19     3     4    1
    20     4     5    1
    21     5     7    1
    22     7     8    1
    23     8     9    1
    24     9    10   ar
    25    10    11   ar
    26    11    12   ar
    27    12    13   ar
    28    13    14   ar
    29    13    15    1
    30    15    16    1
    31    16    17    1
    32    17    18    1
    33     5     6    1
    34    25    26   ar
    35    32    33   ar
    36    33    28   ar
    37    26    21   ar
    38     6     2    1
    39    14     9   ar
    40    18    12    1
    41    15    19    1
