@<TRIPOS>MOLECULE
*****
 39 43 0 0 0
SMALL
GASTEIGER

@<TRIPOS>ATOM
      1 N         139.2817  138.1385  160.3181 N.am    1  UNL1       -0.3018
      2 C         140.3698  138.6609  159.4274 C.2     1  UNL1        0.2425
      3 O         141.4673  139.5071  160.0014 O.2     1  UNL1       -0.2733
      4 H         138.5613  137.5832  159.9414 H       1  UNL1        0.1495
      5 N         139.3044  138.9206  163.8539 N.3     1  UNL1       -0.2711
      6 C         138.7265  139.5649  162.6288 C.3     1  UNL1        0.0933
      7 C         139.2911  138.4625  161.7827 C.3     1  UNL1        0.1035
      8 C         139.8690  137.8182  163.0077 C.3     1  UNL1        0.0933
      9 C         139.3325  139.8925  168.2476 C.3     1  UNL1        0.1140
     10 O         138.4673  139.7409  169.4635 O.3     1  UNL1       -0.3821
     11 C         140.5032  140.2691  167.3886 C.3     1  UNL1        0.0331
     12 C         140.4938  139.9451  165.9241 C.3     1  UNL1        0.0187
     13 C         139.3138  139.2446  165.3184 C.3     1  UNL1        0.0578
     14 C         138.1432  138.8680  166.1774 C.3     1  UNL1        0.0187
     15 C         138.1525  139.1920  167.6420 C.3     1  UNL1        0.0331
     16 H         138.9184  140.1256  170.2313 H       1  UNL1        0.2107
     17 C         142.8394  143.0938  170.5571 C.3     1  UNL1        0.0594
     18 C         141.8240  142.0119  170.3370 C.ar    1  UNL1        0.0884
     19 N         141.3072  141.0630  171.3775 N.ar    1  UNL1       -0.2414
     20 C         140.3109  140.1535  170.7214 C.ar    1  UNL1        0.1034
     21 C         140.2121  140.5404  169.2755 C.ar    1  UNL1        0.0514
     22 S         141.1472  141.6889  169.0380 S.2     1  UNL1       -0.0728
     23 C         140.3604  138.3370  157.9629 C.3     1  UNL1        0.1747
     24 N         141.4276  137.4571  157.3825 N.pl3   1  UNL1       -0.3106
     25 H         142.2807  137.3381  157.8592 H       1  UNL1        0.1486
     26 C         141.1949  136.7584  156.0756 C.ar    1  UNL1        0.1320
     27 N         140.2411  137.3390  155.0741 N.ar    1  UNL1       -0.2092
     28 C         140.0085  136.6403  153.7674 C.ar    1  UNL1        0.2000
     29 N         140.7297  135.3610  153.4621 N.ar    1  UNL1       -0.2239
     30 C         141.6835  134.7804  154.4636 C.ar    1  UNL1        0.0857
     31 C         142.4047  133.5010  154.1583 C.ar    1  UNL1        0.0192
     32 C         143.3586  132.9204  155.1598 C.ar    1  UNL1        0.0054
     33 C         143.5912  133.6191  156.4667 C.ar    1  UNL1        0.0716
     34 C         142.8700  134.8984  156.7719 C.ar    1  UNL1        0.0081
     35 C         141.9161  135.4790  155.7704 C.ar    1  UNL1        0.0491
     36 C         144.5450  133.0385  157.4682 C.3     1  UNL1        0.4186
     37 F         145.4989  132.4578  158.4697 F       1  UNL1       -0.1659
     38 F         143.9382  133.8928  158.5414 F       1  UNL1       -0.1659
     39 F         145.1518  132.1841  156.3950 F       1  UNL1       -0.1659
@<TRIPOS>BOND
     1    17    18    1
     2    18    19   ar
     3    19    20   ar
     4    20    21   ar
     5    21     9    1
     6     9    10    1
     7     9    11    1
     8    11    12    1
     9    12    13    1
    10    13     5    1
    11     5     6    1
    12     6     7    1
    13     7     1    1
    14     1     2   am
    15     2     3    2
    16     2    23    1
    17    23    24    1
    18    24    26    1
    19    26    27   ar
    20    27    28   ar
    21    28    29   ar
    22    29    30   ar
    23    30    31   ar
    24    31    32   ar
    25    32    33   ar
    26    33    36    1
    27    36    37    1
    28    36    38    1
    29    36    39    1
    30    33    34   ar
    31    34    35   ar
    32     7     8    1
    33    13    14    1
    34    14    15    1
    35    21    22   ar
    36    22    18   ar
    37    15     9    1
    38     8     5    1
    39    35    26   ar
    40    35    30   ar
    41    10    16    1
    42     1     4    1
    43    24    25    1
@<TRIPOS>MOLECULE
*****
 39 43 0 0 0
SMALL
GASTEIGER

@<TRIPOS>ATOM
      1 N         143.7262  138.5760  159.7043 N.am    1  UNL1       -0.3018
      2 C         142.5467  138.6765  158.7829 C.2     1  UNL1        0.2425
      3 O         141.2011  139.0565  159.3259 O.2     1  UNL1       -0.2733
      4 H         144.6094  138.3266  159.3479 H       1  UNL1        0.1495
      5 N         143.3247  139.2509  163.2395 N.3     1  UNL1       -0.2711
      6 C         142.8320  138.1911  162.2993 C.3     1  UNL1        0.0933
      7 C         143.5599  138.8556  161.1686 C.3     1  UNL1        0.1035
      8 C         144.0526  139.9154  162.1087 C.3     1  UNL1        0.0933
      9 C         142.8258  140.0895  167.6324 C.3     1  UNL1        0.1140
     10 O         142.8751  139.3764  168.9512 O.3     1  UNL1       -0.3821
     11 C         142.6710  141.1989  166.6347 C.3     1  UNL1        0.0331
     12 C         142.8373  140.9194  165.1705 C.3     1  UNL1        0.0187
     13 C         143.1584  139.5305  164.7038 C.3     1  UNL1        0.0578
     14 C         143.3132  138.4211  165.7014 C.3     1  UNL1        0.0187
     15 C         143.1469  138.7006  167.1657 C.3     1  UNL1        0.0331
     16 H         142.6922  140.0059  169.6661 H       1  UNL1        0.2107
     17 C         140.3755  144.1349  169.9799 C.3     1  UNL1        0.0594
     18 C         141.3955  143.0903  169.6360 C.ar    1  UNL1        0.0884
     19 N         142.7125  142.8838  170.3239 N.ar    1  UNL1       -0.2414
     20 C         143.4086  141.7346  169.6571 C.ar    1  UNL1        0.1034
     21 C         142.5218  141.2308  168.5571 C.ar    1  UNL1        0.0514
     22 S         141.2777  142.0687  168.5442 S.2     1  UNL1       -0.0728
     23 C         142.7130  138.3969  157.3187 C.3     1  UNL1        0.1747
     24 N         143.3666  137.1244  156.8675 N.pl3   1  UNL1       -0.3106
     25 H         144.1288  136.7572  157.3709 H       1  UNL1        0.1486
     26 C         142.8589  136.4115  155.6492 C.ar    1  UNL1        0.1320
     27 N         142.0873  137.1647  154.6065 N.ar    1  UNL1       -0.2092
     28 C         141.5797  136.4517  153.3884 C.ar    1  UNL1        0.2000
     29 N         141.8437  134.9856  153.2129 N.ar    1  UNL1       -0.2239
     30 C         142.6153  134.2324  154.2556 C.ar    1  UNL1        0.0857
     31 C         142.8793  132.7663  154.0802 C.ar    1  UNL1        0.0192
     32 C         143.6509  132.0131  155.1229 C.ar    1  UNL1        0.0054
     33 C         144.1586  132.7261  156.3411 C.ar    1  UNL1        0.0716
     34 C         143.8946  134.1922  156.5166 C.ar    1  UNL1        0.0081
     35 C         143.1229  134.9454  155.4738 C.ar    1  UNL1        0.0491
     36 C         144.9302  131.9729  157.3838 C.3     1  UNL1        0.4186
     37 F         145.7019  131.2197  158.4266 F       1  UNL1       -0.1659
     38 F         144.9587  130.7673  156.4919 F       1  UNL1       -0.1659
     39 F         144.9017  133.1785  158.2758 F       1  UNL1       -0.1659
@<TRIPOS>BOND
     1    17    18    1
     2    18    19   ar
     3    19    20   ar
     4    20    21   ar
     5    21     9    1
     6     9    10    1
     7     9    11    1
     8    11    12    1
     9    12    13    1
    10    13     5    1
    11     5     6    1
    12     6     7    1
    13     7     1    1
    14     1     2   am
    15     2     3    2
    16     2    23    1
    17    23    24    1
    18    24    26    1
    19    26    27   ar
    20    27    28   ar
    21    28    29   ar
    22    29    30   ar
    23    30    31   ar
    24    31    32   ar
    25    32    33   ar
    26    33    36    1
    27    36    37    1
    28    36    38    1
    29    36    39    1
    30    33    34   ar
    31    34    35   ar
    32     7     8    1
    33    13    14    1
    34    14    15    1
    35    21    22   ar
    36    22    18   ar
    37    15     9    1
    38     8     5    1
    39    35    26   ar
    40    35    30   ar
    41    10    16    1
    42     1     4    1
    43    24    25    1
@<TRIPOS>MOLECULE
*****
 39 43 0 0 0
SMALL
GASTEIGER

@<TRIPOS>ATOM
      1 N         143.1561  143.4467  160.7002 N.am    1  UNL1       -0.3018
      2 C         143.7573  143.3975  162.0736 C.2     1  UNL1        0.2425
      3 O         144.3524  142.1197  162.5865 O.2     1  UNL1       -0.2733
      4 H         142.7655  144.2853  160.3635 H       1  UNL1        0.1495
      5 N         143.1415  140.4803  158.6229 N.3     1  UNL1       -0.2711
      6 C         142.0925  141.2808  159.3364 C.3     1  UNL1        0.0933
      7 C         143.1501  142.2180  159.8397 C.3     1  UNL1        0.1035
      8 C         144.1990  141.4176  159.1263 C.3     1  UNL1        0.0933
      9 C         143.1233  136.7944  156.0416 C.3     1  UNL1        0.1140
     10 O         143.4461  136.3723  154.6389 O.3     1  UNL1       -0.3821
     11 C         142.6851  136.7093  157.4737 C.3     1  UNL1        0.0331
     12 C         142.6912  137.9380  158.3341 C.3     1  UNL1        0.0187
     13 C         143.1354  139.2517  157.7625 C.3     1  UNL1        0.0578
     14 C         143.5736  139.3368  156.3305 C.3     1  UNL1        0.0187
     15 C         143.5675  138.1081  155.4700 C.3     1  UNL1        0.0331
     16 H         143.2754  135.4226  154.5396 H       1  UNL1        0.2107
     17 C         141.0677  132.0435  155.0004 C.3     1  UNL1        0.0594
     18 C         141.8462  133.1504  155.6474 C.ar    1  UNL1        0.0884
     19 N         142.7138  133.0234  156.8646 N.ar    1  UNL1       -0.2414
     20 C         143.2978  134.3730  157.1604 C.ar    1  UNL1        0.1034
     21 C         142.7911  135.3341  156.1261 C.ar    1  UNL1        0.0514
     22 S         141.8941  134.5784  155.1911 S.2     1  UNL1       -0.0728
     23 C         143.7633  144.6262  162.9340 C.3     1  UNL1        0.1747
     24 N         142.6164  144.8977  163.8619 N.pl3   1  UNL1       -0.3106
     25 H         142.7810  145.0235  164.8243 H       1  UNL1        0.1486
     26 C         141.2186  144.9773  163.3233 C.ar    1  UNL1        0.1320
     27 N         140.8687  146.0125  162.2958 N.ar    1  UNL1       -0.2092
     28 C         139.4710  146.0922  161.7573 C.ar    1  UNL1        0.2000
     29 N         138.4232  145.1366  162.2463 N.ar    1  UNL1       -0.2239
     30 C         138.7732  144.1014  163.2738 C.ar    1  UNL1        0.0857
     31 C         137.7255  143.1458  163.7628 C.ar    1  UNL1        0.0192
     32 C         138.0754  142.1106  164.7903 C.ar    1  UNL1        0.0054
     33 C         139.4732  142.0309  165.3289 C.ar    1  UNL1        0.0716
     34 C         140.5209  142.9865  164.8399 C.ar    1  UNL1        0.0081
     35 C         140.1709  144.0218  163.8123 C.ar    1  UNL1        0.0491
     36 C         139.8232  140.9957  166.3564 C.3     1  UNL1        0.4186
     37 F         140.1732  139.9605  167.3840 F       1  UNL1       -0.1659
     38 F         139.6391  139.9162  165.3314 F       1  UNL1       -0.1659
     39 F         140.0073  142.0753  167.3814 F       1  UNL1       -0.1659
@<TRIPOS>BOND
     1    17    18    1
     2    18    19   ar
     3    19    20   ar
     4    20    21   ar
     5    21     9    1
     6     9    10    1
     7     9    11    1
     8    11    12    1
     9    12    13    1
    10    13     5    1
    11     5     6    1
    12     6     7    1
    13     7     1    1
    14     1     2   am
    15     2     3    2
    16     2    23    1
    17    23    24    1
    18    24    26    1
    19    26    27   ar
    20    27    28   ar
    21    28    29   ar
    22    29    30   ar
    23    30    31   ar
    24    31    32   ar
    25    32    33   ar
    26    33    36    1
    27    36    37    1
    28    36    38    1
    29    36    39    1
    30    33    34   ar
    31    34    35   ar
    32     7     8    1
    33    13    14    1
    34    14    15    1
    35    21    22   ar
    36    22    18   ar
    37    15     9    1
    38     8     5    1
    39    35    26   ar
    40    35    30   ar
    41    10    16    1
    42     1     4    1
    43    24    25    1
@<TRIPOS>MOLECULE
*****
 39 43 0 0 0
SMALL
GASTEIGER

@<TRIPOS>ATOM
      1 N         141.6533  143.1927  158.8243 N.am    1  UNL1       -0.3018
      2 C         140.4063  143.7312  159.4606 C.2     1  UNL1        0.2425
      3 O         139.1921  142.8594  159.5869 O.2     1  UNL1       -0.2733
      4 H         142.4502  143.7649  158.7414 H       1  UNL1        0.1495
      5 N         141.7328  139.7881  157.5927 N.3     1  UNL1       -0.2711
      6 C         142.1690  141.1200  157.0580 C.3     1  UNL1        0.0933
      7 C         141.6863  141.7825  158.3142 C.3     1  UNL1        0.1035
      8 C         141.2501  140.4507  158.8489 C.3     1  UNL1        0.0933
      9 C         141.8316  135.5575  156.0623 C.3     1  UNL1        0.1140
     10 O         141.1920  134.7011  155.0099 O.3     1  UNL1       -0.3821
     11 C         142.7107  135.9611  157.2088 C.3     1  UNL1        0.0331
     12 C         142.6778  137.3713  157.7189 C.3     1  UNL1        0.0187
     13 C         141.7657  138.3780  157.0826 C.3     1  UNL1        0.0578
     14 C         140.8866  137.9744  155.9362 C.3     1  UNL1        0.0187
     15 C         140.9195  136.5642  155.4260 C.3     1  UNL1        0.0331
     16 H         141.5501  133.8012  155.0639 H       1  UNL1        0.2107
     17 C         145.3070  131.9800  157.7950 C.3     1  UNL1        0.0594
     18 C         144.1190  132.6091  157.1296 C.ar    1  UNL1        0.0884
     19 N         143.0475  131.8844  156.3701 N.ar    1  UNL1       -0.2414
     20 C         142.0601  132.9007  155.8779 C.ar    1  UNL1        0.1034
     21 C         142.5215  134.2535  156.3331 C.ar    1  UNL1        0.0514
     22 S         143.7940  134.0732  157.1067 S.2     1  UNL1       -0.0728
     23 C         140.3733  145.1414  159.9707 C.3     1  UNL1        0.1747
     24 N         141.3501  145.5823  161.0202 N.pl3   1  UNL1       -0.3106
     25 H         141.5179  146.5416  161.1646 H       1  UNL1        0.1486
     26 C         142.0713  144.5616  161.8498 C.ar    1  UNL1        0.1320
     27 N         143.3930  144.0206  161.3913 N.ar    1  UNL1       -0.2092
     28 C         144.1141  143.0000  162.2209 C.ar    1  UNL1        0.2000
     29 N         143.5135  142.5204  163.5090 N.ar    1  UNL1       -0.2239
     30 C         142.1918  143.0614  163.9675 C.ar    1  UNL1        0.0857
     31 C         141.5912  142.5818  165.2556 C.ar    1  UNL1        0.0192
     32 C         140.2695  143.1228  165.7142 C.ar    1  UNL1        0.0054
     33 C         139.5483  144.1435  164.8846 C.ar    1  UNL1        0.0716
     34 C         140.1489  144.6231  163.5965 C.ar    1  UNL1        0.0081
     35 C         141.4707  144.0820  163.1380 C.ar    1  UNL1        0.0491
     36 C         138.2266  144.6846  165.3431 C.3     1  UNL1        0.4186
     37 F         136.9048  145.2257  165.8017 F       1  UNL1       -0.1659
     38 F         137.5685  144.1107  164.1235 F       1  UNL1       -0.1659
     39 F         138.8846  145.2585  166.5628 F       1  UNL1       -0.1659
@<TRIPOS>BOND
     1    17    18    1
     2    18    19   ar
     3    19    20   ar
     4    20    21   ar
     5    21     9    1
     6     9    10    1
     7     9    11    1
     8    11    12    1
     9    12    13    1
    10    13     5    1
    11     5     6    1
    12     6     7    1
    13     7     1    1
    14     1     2   am
    15     2     3    2
    16     2    23    1
    17    23    24    1
    18    24    26    1
    19    26    27   ar
    20    27    28   ar
    21    28    29   ar
    22    29    30   ar
    23    30    31   ar
    24    31    32   ar
    25    32    33   ar
    26    33    36    1
    27    36    37    1
    28    36    38    1
    29    36    39    1
    30    33    34   ar
    31    34    35   ar
    32     7     8    1
    33    13    14    1
    34    14    15    1
    35    21    22   ar
    36    22    18   ar
    37    15     9    1
    38     8     5    1
    39    35    26   ar
    40    35    30   ar
    41    10    16    1
    42     1     4    1
    43    24    25    1
@<TRIPOS>MOLECULE
*****
 39 43 0 0 0
SMALL
GASTEIGER

@<TRIPOS>ATOM
      1 N         141.8313  143.1874  159.2056 N.am    1  UNL1       -0.3018
      2 C         140.5447  143.9433  159.3584 C.2     1  UNL1        0.2425
      3 O         139.2483  143.3072  158.9522 O.2     1  UNL1       -0.2733
      4 H         142.6821  143.6048  159.4722 H       1  UNL1        0.1495
      5 N         141.8077  139.8269  157.8560 N.3     1  UNL1       -0.2711
      6 C         142.2671  141.1660  157.3601 C.3     1  UNL1        0.0933
      7 C         141.8215  141.7954  158.6466 C.3     1  UNL1        0.1035
      8 C         141.3621  140.4565  159.1426 C.3     1  UNL1        0.0933
      9 C         141.7784  135.6513  156.1790 C.3     1  UNL1        0.1140
     10 O         140.9113  134.7530  155.3476 O.3     1  UNL1       -0.3821
     11 C         142.9415  136.1210  157.0016 C.3     1  UNL1        0.0331
     12 C         142.9512  137.5129  157.5606 C.3     1  UNL1        0.0187
     13 C         141.7980  138.4351  157.2970 C.3     1  UNL1        0.0578
     14 C         140.6349  137.9654  156.4744 C.3     1  UNL1        0.0187
     15 C         140.6252  136.5735  155.9154 C.3     1  UNL1        0.0331
     16 H         141.3452  133.8918  155.2422 H       1  UNL1        0.2107
     17 C         145.0156  131.7529  157.6634 C.3     1  UNL1        0.0594
     18 C         144.1185  132.6252  156.8363 C.ar    1  UNL1        0.0884
     19 N         143.7652  132.4105  155.3943 N.ar    1  UNL1       -0.2414
     20 C         142.8456  133.5180  154.9726 C.ar    1  UNL1        0.1034
     21 C         142.6305  134.4171  156.1539 C.ar    1  UNL1        0.0514
     22 S         143.4173  133.8653  157.3056 S.2     1  UNL1       -0.0728
     23 C         140.5544  145.3351  159.9174 C.3     1  UNL1        0.1747
     24 N         140.8225  145.5555  161.3767 N.pl3   1  UNL1       -0.3106
     25 H         141.5771  146.1215  161.6586 H       1  UNL1        0.1486
     26 C         139.9408  144.9134  162.4065 C.ar    1  UNL1        0.1320
     27 N         138.4504  145.0510  162.3088 N.ar    1  UNL1       -0.2092
     28 C         137.5688  144.4089  163.3386 C.ar    1  UNL1        0.2000
     29 N         138.1777  143.6292  164.4661 N.ar    1  UNL1       -0.2239
     30 C         139.6682  143.4916  164.5638 C.ar    1  UNL1        0.0857
     31 C         140.2770  142.7118  165.6913 C.ar    1  UNL1        0.0192
     32 C         141.7675  142.5742  165.7890 C.ar    1  UNL1        0.0054
     33 C         142.6491  143.2163  164.7592 C.ar    1  UNL1        0.0716
     34 C         142.0402  143.9960  163.6317 C.ar    1  UNL1        0.0081
     35 C         140.5497  144.1337  163.5340 C.ar    1  UNL1        0.0491
     36 C         144.1396  143.0786  164.8569 C.3     1  UNL1        0.4186
     37 F         145.6301  142.9409  164.9547 F       1  UNL1       -0.1659
     38 F         144.2761  144.5722  164.8781 F       1  UNL1       -0.1659
     39 F         144.0030  141.5851  164.8358 F       1  UNL1       -0.1659
@<TRIPOS>BOND
     1    17    18    1
     2    18    19   ar
     3    19    20   ar
     4    20    21   ar
     5    21     9    1
     6     9    10    1
     7     9    11    1
     8    11    12    1
     9    12    13    1
    10    13     5    1
    11     5     6    1
    12     6     7    1
    13     7     1    1
    14     1     2   am
    15     2     3    2
    16     2    23    1
    17    23    24    1
    18    24    26    1
    19    26    27   ar
    20    27    28   ar
    21    28    29   ar
    22    29    30   ar
    23    30    31   ar
    24    31    32   ar
    25    32    33   ar
    26    33    36    1
    27    36    37    1
    28    36    38    1
    29    36    39    1
    30    33    34   ar
    31    34    35   ar
    32     7     8    1
    33    13    14    1
    34    14    15    1
    35    21    22   ar
    36    22    18   ar
    37    15     9    1
    38     8     5    1
    39    35    26   ar
    40    35    30   ar
    41    10    16    1
    42     1     4    1
    43    24    25    1
@<TRIPOS>MOLECULE
*****
 39 43 0 0 0
SMALL
GASTEIGER

@<TRIPOS>ATOM
      1 N         140.3637  143.1857  159.9161 N.am    1  UNL1       -0.3018
      2 C         141.2742  144.2489  160.4551 C.2     1  UNL1        0.2425
      3 O         142.7565  144.1407  160.2521 O.2     1  UNL1       -0.2733
      4 H         139.3909  143.2567  160.0493 H       1  UNL1        0.1495
      5 N         141.7443  140.3575  158.1245 N.3     1  UNL1       -0.2711
      6 C         141.0949  141.6501  157.7276 C.3     1  UNL1        0.0933
      7 C         140.9356  142.0142  159.1740 C.3     1  UNL1        0.1035
      8 C         141.5848  140.7216  159.5709 C.3     1  UNL1        0.0933
      9 C         143.4598  136.8431  155.8982 C.3     1  UNL1        0.1140
     10 O         144.5620  136.5213  154.9331 O.3     1  UNL1       -0.3821
     11 C         142.2789  136.6535  156.8036 C.3     1  UNL1        0.0331
     12 C         141.7071  137.8250  157.5457 C.3     1  UNL1        0.0187
     13 C         142.3161  139.1860  157.3824 C.3     1  UNL1        0.0578
     14 C         143.4969  139.3757  156.4770 C.3     1  UNL1        0.0187
     15 C         144.0687  138.2042  155.7349 C.3     1  UNL1        0.0331
     16 H         144.5411  135.5747  154.7224 H       1  UNL1        0.2107
     17 C         143.1482  131.6630  156.8726 C.3     1  UNL1        0.0594
     18 C         143.0904  132.9893  156.1743 C.ar    1  UNL1        0.0884
     19 N         142.6808  133.2184  154.7495 N.ar    1  UNL1       -0.2414
     20 C         142.7693  134.6899  154.4727 C.ar    1  UNL1        0.1034
     21 C         143.2336  135.3703  155.7263 C.ar    1  UNL1        0.0514
     22 S         143.4320  134.3192  156.7779 S.2     1  UNL1       -0.0728
     23 C         140.7024  145.4204  161.1972 C.3     1  UNL1        0.1747
     24 N         141.1719  145.7290  162.5880 N.pl3   1  UNL1       -0.3106
     25 H         141.8122  146.4612  162.7403 H       1  UNL1        0.1486
     26 C         140.6661  144.9218  163.7467 C.ar    1  UNL1        0.1320
     27 N         139.3127  145.2085  164.3265 N.ar    1  UNL1       -0.2092
     28 C         138.8069  144.4014  165.4852 C.ar    1  UNL1        0.2000
     29 N         139.6544  143.3075  166.0641 N.ar    1  UNL1       -0.2239
     30 C         141.0078  143.0208  165.4844 C.ar    1  UNL1        0.0857
     31 C         141.8553  141.9270  166.0633 C.ar    1  UNL1        0.0192
     32 C         143.2087  141.6403  165.4836 C.ar    1  UNL1        0.0054
     33 C         143.7146  142.4474  164.3248 C.ar    1  UNL1        0.0716
     34 C         142.8670  143.5413  163.7459 C.ar    1  UNL1        0.0081
     35 C         141.5136  143.8280  164.3257 C.ar    1  UNL1        0.0491
     36 C         145.0679  142.1607  163.7450 C.3     1  UNL1        0.4186
     37 F         146.4214  141.8739  163.1653 F       1  UNL1       -0.1659
     38 F         144.9404  143.3605  162.8540 F       1  UNL1       -0.1659
     39 F         145.1955  140.9609  164.6361 F       1  UNL1       -0.1659
@<TRIPOS>BOND
     1    17    18    1
     2    18    19   ar
     3    19    20   ar
     4    20    21   ar
     5    21     9    1
     6     9    10    1
     7     9    11    1
     8    11    12    1
     9    12    13    1
    10    13     5    1
    11     5     6    1
    12     6     7    1
    13     7     1    1
    14     1     2   am
    15     2     3    2
    16     2    23    1
    17    23    24    1
    18    24    26    1
    19    26    27   ar
    20    27    28   ar
    21    28    29   ar
    22    29    30   ar
    23    30    31   ar
    24    31    32   ar
    25    32    33   ar
    26    33    36    1
    27    36    37    1
    28    36    38    1
    29    36    39    1
    30    33    34   ar
    31    34    35   ar
    32     7     8    1
    33    13    14    1
    34    14    15    1
    35    21    22   ar
    36    22    18   ar
    37    15     9    1
    38     8     5    1
    39    35    26   ar
    40    35    30   ar
    41    10    16    1
    42     1     4    1
    43    24    25    1
@<TRIPOS>MOLECULE
*****
 39 43 0 0 0
SMALL
GASTEIGER

@<TRIPOS>ATOM
      1 N         139.2011  141.9392  159.4271 N.am    1  UNL1       -0.3018
      2 C         138.6285  142.2357  160.7814 C.2     1  UNL1        0.2425
      3 O         138.2337  143.6382  161.1381 O.2     1  UNL1       -0.2733
      4 H         139.4602  141.0187  159.1930 H       1  UNL1        0.1495
      5 N         139.6303  144.6094  157.0187 N.3     1  UNL1       -0.2711
      6 C         140.2203  144.2850  158.3590 C.3     1  UNL1        0.0933
      7 C         139.3789  143.0452  158.4294 C.3     1  UNL1        0.1035
      8 C         138.7888  143.3696  157.0891 C.3     1  UNL1        0.0933
      9 C         140.1637  147.9273  154.0259 C.3     1  UNL1        0.1140
     10 O         140.8549  148.1991  152.7227 O.3     1  UNL1       -0.3821
     11 C         139.3269  148.1495  155.2509 C.3     1  UNL1        0.0331
     12 C         139.1491  147.0435  156.2485 C.3     1  UNL1        0.0187
     13 C         139.8081  145.7153  156.0211 C.3     1  UNL1        0.0578
     14 C         140.6448  145.4931  154.7962 C.3     1  UNL1        0.0187
     15 C         140.8226  146.5991  153.7985 C.3     1  UNL1        0.0331
     16 H         140.6703  149.1092  152.4425 H       1  UNL1        0.2107
     17 C         138.4399  152.8473  154.8639 C.3     1  UNL1        0.0594
     18 C         138.9525  151.6114  154.1860 C.ar    1  UNL1        0.0884
     19 N         139.2480  151.4668  152.7224 N.ar    1  UNL1       -0.2414
     20 C         139.7377  150.0691  152.4843 C.ar    1  UNL1        0.1034
     21 C         139.7448  149.3499  153.8007 C.ar    1  UNL1        0.0514
     22 S         139.2595  150.3031  154.8523 S.2     1  UNL1       -0.0728
     23 C         138.4508  141.1298  161.7791 C.3     1  UNL1        0.1747
     24 N         139.6365  140.5974  162.5278 N.pl3   1  UNL1       -0.3106
     25 H         140.0736  139.7667  162.2311 H       1  UNL1        0.1486
     26 C         140.1562  141.3308  163.7288 C.ar    1  UNL1        0.1320
     27 N         140.9985  142.5591  163.5510 N.ar    1  UNL1       -0.2092
     28 C         141.5181  143.2924  164.7518 C.ar    1  UNL1        0.2000
     29 N         141.1954  142.7974  166.1306 N.ar    1  UNL1       -0.2239
     30 C         140.3531  141.5691  166.3084 C.ar    1  UNL1        0.0857
     31 C         140.0305  141.0741  167.6871 C.ar    1  UNL1        0.0192
     32 C         139.1881  139.8458  167.8649 C.ar    1  UNL1        0.0054
     33 C         138.6685  139.1124  166.6640 C.ar    1  UNL1        0.0716
     34 C         138.9911  139.6074  165.2853 C.ar    1  UNL1        0.0081
     35 C         139.8335  140.8358  165.1075 C.ar    1  UNL1        0.0491
     36 C         137.8261  137.8840  166.8418 C.3     1  UNL1        0.4186
     37 F         136.9838  136.6556  167.0196 F       1  UNL1       -0.1659
     38 F         137.1080  138.5416  167.9827 F       1  UNL1       -0.1659
     39 F         138.5443  137.2264  165.7008 F       1  UNL1       -0.1659
@<TRIPOS>BOND
     1    17    18    1
     2    18    19   ar
     3    19    20   ar
     4    20    21   ar
     5    21     9    1
     6     9    10    1
     7     9    11    1
     8    11    12    1
     9    12    13    1
    10    13     5    1
    11     5     6    1
    12     6     7    1
    13     7     1    1
    14     1     2   am
    15     2     3    2
    16     2    23    1
    17    23    24    1
    18    24    26    1
    19    26    27   ar
    20    27    28   ar
    21    28    29   ar
    22    29    30   ar
    23    30    31   ar
    24    31    32   ar
    25    32    33   ar
    26    33    36    1
    27    36    37    1
    28    36    38    1
    29    36    39    1
    30    33    34   ar
    31    34    35   ar
    32     7     8    1
    33    13    14    1
    34    14    15    1
    35    21    22   ar
    36    22    18   ar
    37    15     9    1
    38     8     5    1
    39    35    26   ar
    40    35    30   ar
    41    10    16    1
    42     1     4    1
    43    24    25    1
@<TRIPOS>MOLECULE
*****
 39 43 0 0 0
SMALL
GASTEIGER

@<TRIPOS>ATOM
      1 N         142.9465  144.5148  161.6933 N.am    1  UNL1       -0.3018
      2 C         142.4329  144.9179  163.0437 C.2     1  UNL1        0.2425
      3 O         140.9960  145.3143  163.2120 O.2     1  UNL1       -0.2733
      4 H         143.8895  144.2546  161.5828 H       1  UNL1        0.1495
      5 N         140.7175  144.4988  158.8392 N.3     1  UNL1       -0.2711
      6 C         141.9027  143.6835  159.2639 C.3     1  UNL1        0.0933
      7 C         142.0231  144.5082  160.5110 C.3     1  UNL1        0.1035
      8 C         140.8379  145.3235  160.0863 C.3     1  UNL1        0.0933
      9 C         137.9477  144.4788  155.2926 C.3     1  UNL1        0.1140
     10 O         137.5238  145.3672  154.1608 O.3     1  UNL1       -0.3821
     11 C         138.0277  143.2784  156.1886 C.3     1  UNL1        0.0331
     12 C         138.9509  143.2851  157.3708 C.3     1  UNL1        0.0187
     13 C         139.7942  144.4921  157.6570 C.3     1  UNL1        0.0578
     14 C         139.7143  145.6925  156.7611 C.3     1  UNL1        0.0187
     15 C         138.7910  145.6858  155.5789 C.3     1  UNL1        0.0331
     16 H         136.8648  144.9069  153.6179 H       1  UNL1        0.2107
     17 C         134.4149  140.6542  154.4144 C.3     1  UNL1        0.0594
     18 C         135.3333  141.8223  154.2097 C.ar    1  UNL1        0.0884
     19 N         135.5325  142.5729  152.9263 N.ar    1  UNL1       -0.2414
     20 C         136.5362  143.6594  153.1758 C.ar    1  UNL1        0.1034
     21 C         136.9572  143.5803  154.6133 C.ar    1  UNL1        0.0514
     22 S         136.2138  142.4449  155.2522 S.2     1  UNL1       -0.0728
     23 C         143.3561  144.9245  164.2259 C.3     1  UNL1        0.1747
     24 N         144.2809  143.7674  164.4618 N.pl3   1  UNL1       -0.3106
     25 H         145.2421  143.9263  164.6035 H       1  UNL1        0.1486
     26 C         143.7412  142.3679  164.4818 C.ar    1  UNL1        0.1320
     27 N         143.6480  141.5817  163.2078 N.ar    1  UNL1       -0.2092
     28 C         143.1083  140.1823  163.2279 C.ar    1  UNL1        0.2000
     29 N         142.6618  139.5692  164.5219 N.ar    1  UNL1       -0.2239
     30 C         142.7550  140.3554  165.7959 C.ar    1  UNL1        0.0857
     31 C         142.3084  139.7422  167.0900 C.ar    1  UNL1        0.0192
     32 C         142.4016  140.5284  168.3640 C.ar    1  UNL1        0.0054
     33 C         142.9413  141.9279  168.3440 C.ar    1  UNL1        0.0716
     34 C         143.3878  142.5410  167.0499 C.ar    1  UNL1        0.0081
     35 C         143.2947  141.7547  165.7759 C.ar    1  UNL1        0.0491
     36 C         143.0345  142.7141  169.6180 C.3     1  UNL1        0.4186
     37 F         143.1277  143.5003  170.8921 F       1  UNL1       -0.1659
     38 F         141.6481  143.2411  169.3942 F       1  UNL1       -0.1659
     39 F         144.4208  142.1871  169.8419 F       1  UNL1       -0.1659
@<TRIPOS>BOND
     1    17    18    1
     2    18    19   ar
     3    19    20   ar
     4    20    21   ar
     5    21     9    1
     6     9    10    1
     7     9    11    1
     8    11    12    1
     9    12    13    1
    10    13     5    1
    11     5     6    1
    12     6     7    1
    13     7     1    1
    14     1     2   am
    15     2     3    2
    16     2    23    1
    17    23    24    1
    18    24    26    1
    19    26    27   ar
    20    27    28   ar
    21    28    29   ar
    22    29    30   ar
    23    30    31   ar
    24    31    32   ar
    25    32    33   ar
    26    33    36    1
    27    36    37    1
    28    36    38    1
    29    36    39    1
    30    33    34   ar
    31    34    35   ar
    32     7     8    1
    33    13    14    1
    34    14    15    1
    35    21    22   ar
    36    22    18   ar
    37    15     9    1
    38     8     5    1
    39    35    26   ar
    40    35    30   ar
    41    10    16    1
    42     1     4    1
    43    24    25    1
@<TRIPOS>MOLECULE
*****
 39 43 0 0 0
SMALL
GASTEIGER

@<TRIPOS>ATOM
      1 N         143.4688  141.9014  163.2038 N.am    1  UNL1       -0.3018
      2 C         143.7246  140.4248  163.2677 C.2     1  UNL1        0.2425
      3 O         143.3011  139.5404  162.1325 O.2     1  UNL1       -0.2733
      4 H         143.7467  142.4818  163.9489 H       1  UNL1        0.1495
      5 N         141.8286  143.3313  160.3091 N.3     1  UNL1       -0.2711
      6 C         141.4187  143.0326  161.7207 C.3     1  UNL1        0.0933
      7 C         142.7894  142.4937  162.0047 C.3     1  UNL1        0.1035
      8 C         143.1993  142.7923  160.5932 C.3     1  UNL1        0.0933
      9 C         139.7905  145.1081  156.7120 C.3     1  UNL1        0.1140
     10 O         138.8427  144.7155  155.6176 O.3     1  UNL1       -0.3821
     11 C         140.7059  145.9521  157.5485 C.3     1  UNL1        0.0331
     12 C         141.3853  145.3598  158.7475 C.3     1  UNL1        0.0187
     13 C         141.1493  143.9236  159.1101 C.3     1  UNL1        0.0578
     14 C         140.2339  143.0796  158.2736 C.3     1  UNL1        0.0187
     15 C         139.5545  143.6718  157.0745 C.3     1  UNL1        0.0331
     16 H         138.6827  145.4779  155.0396 H       1  UNL1        0.2107
     17 C         140.4731  148.8728  153.0732 C.3     1  UNL1        0.0594
     18 C         140.0112  148.1384  154.2968 C.ar    1  UNL1        0.0884
     19 N         139.0970  148.6783  155.3565 N.ar    1  UNL1       -0.2414
     20 C         138.9030  147.6089  156.3902 C.ar    1  UNL1        0.1034
     21 C         139.6973  146.4080  155.9694 C.ar    1  UNL1        0.0514
     22 S         140.3822  146.7353  154.6756 S.2     1  UNL1       -0.0728
     23 C         144.4039  139.8325  164.4667 C.3     1  UNL1        0.1747
     24 N         143.7025  138.7919  165.2884 N.pl3   1  UNL1       -0.3106
     25 H         143.8986  137.8377  165.1460 H       1  UNL1        0.1486
     26 C         142.7021  139.2052  166.3269 C.ar    1  UNL1        0.1320
     27 N         143.1677  139.6509  167.6813 N.ar    1  UNL1       -0.2092
     28 C         142.1674  140.0641  168.7198 C.ar    1  UNL1        0.2000
     29 N         140.7014  140.0317  168.4038 N.ar    1  UNL1       -0.2239
     30 C         140.2357  139.5860  167.0494 C.ar    1  UNL1        0.0857
     31 C         138.7698  139.5536  166.7335 C.ar    1  UNL1        0.0192
     32 C         138.3041  139.1079  165.3790 C.ar    1  UNL1        0.0054
     33 C         139.3045  138.6946  164.3405 C.ar    1  UNL1        0.0716
     34 C         140.7705  138.7270  164.6564 C.ar    1  UNL1        0.0081
     35 C         141.2361  139.1727  166.0110 C.ar    1  UNL1        0.0491
     36 C         138.8389  138.2489  162.9861 C.3     1  UNL1        0.4186
     37 F         138.3732  137.8032  161.6316 F       1  UNL1       -0.1659
     38 F         139.8690  137.1586  162.9907 F       1  UNL1       -0.1659
     39 F         137.8088  139.3391  162.9814 F       1  UNL1       -0.1659
@<TRIPOS>BOND
     1    17    18    1
     2    18    19   ar
     3    19    20   ar
     4    20    21   ar
     5    21     9    1
     6     9    10    1
     7     9    11    1
     8    11    12    1
     9    12    13    1
    10    13     5    1
    11     5     6    1
    12     6     7    1
    13     7     1    1
    14     1     2   am
    15     2     3    2
    16     2    23    1
    17    23    24    1
    18    24    26    1
    19    26    27   ar
    20    27    28   ar
    21    28    29   ar
    22    29    30   ar
    23    30    31   ar
    24    31    32   ar
    25    32    33   ar
    26    33    36    1
    27    36    37    1
    28    36    38    1
    29    36    39    1
    30    33    34   ar
    31    34    35   ar
    32     7     8    1
    33    13    14    1
    34    14    15    1
    35    21    22   ar
    36    22    18   ar
    37    15     9    1
    38     8     5    1
    39    35    26   ar
    40    35    30   ar
    41    10    16    1
    42     1     4    1
    43    24    25    1
