@<TRIPOS>MOLECULE
*****
 30 33 0 0 0
SMALL
GASTEIGER

@<TRIPOS>ATOM
      1 C         142.8331  139.3090  167.4995 C.ar    1  UNL1        0.1289
      2 N         142.8413  138.8295  168.9208 N.ar    1  UNL1       -0.2292
      3 C         142.0817  139.5839  169.9713 C.ar    1  UNL1        0.1053
      4 C         141.3138  140.8180  169.6007 C.ar    1  UNL1        0.0783
      5 C         141.3055  141.2976  168.1794 C.ar    1  UNL1        0.0380
      6 S         140.6446  142.4717  167.5202 S.2     1  UNL1       -0.0866
      7 C         140.9958  142.4429  166.0622 C.ar    1  UNL1        0.0296
      8 C         141.8737  141.2509  165.8203 C.ar    1  UNL1        0.0097
      9 C         142.0652  140.5431  167.1289 C.ar    1  UNL1        0.0380
     10 C         140.5477  143.4322  165.0276 C.ar    1  UNL1        0.0060
     11 C         141.5631  144.1764  164.2120 C.ar    1  UNL1        0.0005
     12 C         141.1149  145.1658  163.1774 C.ar    1  UNL1        0.0000
     13 C         139.6514  145.4110  162.9584 C.ar    1  UNL1        0.0000
     14 C         138.6360  144.6669  163.7740 C.ar    1  UNL1        0.0000
     15 C         139.0842  143.6775  164.8086 C.ar    1  UNL1        0.0005
     16 C         140.5541  141.5725  170.6513 C.2     1  UNL1        0.2448
     17 N         139.0568  141.6385  170.5920 N.am    1  UNL1       -0.3253
     18 O         141.2919  142.2608  171.7612 O.2     1  UNL1       -0.2703
     19 H         138.5726  141.1868  169.8636 H       1  UNL1        0.1453
     20 H         138.5582  142.1337  171.2816 H       1  UNL1        0.1453
     21 N         143.5927  138.5545  166.4490 N.pl3   1  UNL1       -0.3184
     22 H         144.4959  138.2145  166.6435 H       1  UNL1        0.1482
     23 C         144.8973  139.6654  163.9864 C.3     1  UNL1        0.0188
     24 C         143.6286  138.8736  163.8708 C.3     1  UNL1        0.0722
     25 N         143.0121  138.6373  162.5240 N.3     1  UNL1       -0.2972
     26 C         141.7433  137.8454  162.4084 C.3     1  UNL1        0.0686
     27 C         141.0911  137.2900  163.6396 C.3     1  UNL1        0.0188
     28 C         141.7075  137.5264  164.9865 C.3     1  UNL1        0.0223
     29 C         142.9763  138.3182  165.1021 C.3     1  UNL1        0.0847
     30 H         143.7123  138.1554  161.9601 H       1  UNL1        0.1233
@<TRIPOS>BOND
     1    24    23    1
     2    24    25    1
     3    25    26    1
     4    26    27    1
     5    27    28    1
     6    28    29    1
     7    29    21    1
     8    21     1    1
     9     1     2   ar
    10     2     3   ar
    11     3     4   ar
    12     4    16    1
    13    16    17   am
    14    16    18    2
    15     4     5   ar
    16     5     6   ar
    17     6     7   ar
    18     7    10    1
    19    10    11   ar
    20    11    12   ar
    21    12    13   ar
    22    13    14   ar
    23    14    15   ar
    24     7     8   ar
    25     8     9   ar
    26    29    24    1
    27     9     1   ar
    28     9     5   ar
    29    15    10   ar
    30    25    30    1
    31    21    22    1
    32    17    19    1
    33    17    20    1
@<TRIPOS>MOLECULE
*****
 30 33 0 0 0
SMALL
GASTEIGER

@<TRIPOS>ATOM
      1 C         138.8020  139.5558  167.5783 C.ar    1  UNL1        0.1289
      2 N         138.2222  139.5335  168.9615 N.ar    1  UNL1       -0.2292
      3 C         139.0298  140.0357  170.1214 C.ar    1  UNL1        0.1053
      4 C         140.4173  140.5604  169.8982 C.ar    1  UNL1        0.0783
      5 C         140.9970  140.5828  168.5150 C.ar    1  UNL1        0.0380
      6 S         142.3268  141.0383  167.9913 S.2     1  UNL1       -0.0866
      7 C         142.3410  140.8176  166.5077 C.ar    1  UNL1        0.0296
      8 C         141.0200  140.2256  166.1144 C.ar    1  UNL1        0.0097
      9 C         140.1894  140.0805  167.3550 C.ar    1  UNL1        0.0380
     10 C         143.4767  141.1334  165.5802 C.ar    1  UNL1        0.0060
     11 C         143.9398  142.5507  165.4169 C.ar    1  UNL1        0.0005
     12 C         145.0756  142.8665  164.4893 C.ar    1  UNL1        0.0000
     13 C         145.7482  141.7649  163.7250 C.ar    1  UNL1        0.0000
     14 C         145.2851  140.3476  163.8883 C.ar    1  UNL1        0.0000
     15 C         144.1493  140.0319  164.8159 C.ar    1  UNL1        0.0005
     16 C         141.2249  141.0627  171.0582 C.2     1  UNL1        0.2448
     17 N         142.5191  140.3945  171.4163 N.am    1  UNL1       -0.3253
     18 O         140.7380  142.2331  171.8601 O.2     1  UNL1       -0.2703
     19 H         142.8386  139.6262  170.8900 H       1  UNL1        0.1453
     20 H         143.0492  140.7241  172.1776 H       1  UNL1        0.1453
     21 N         137.9944  139.0536  166.4184 N.pl3   1  UNL1       -0.3184
     22 H         137.3624  138.3093  166.5442 H       1  UNL1        0.1482
     23 C         139.0756  137.4471  164.1270 C.3     1  UNL1        0.0188
     24 C         138.6903  138.8821  163.9211 C.3     1  UNL1        0.0722
     25 N         138.8455  139.5139  162.5696 N.3     1  UNL1       -0.2972
     26 C         138.4601  140.9489  162.3637 C.3     1  UNL1        0.0686
     27 C         137.9195  141.7520  163.5093 C.3     1  UNL1        0.0188
     28 C         137.7642  141.1203  164.8610 C.3     1  UNL1        0.0223
     29 C         138.1496  139.6853  165.0668 C.3     1  UNL1        0.0847
     30 H         138.2844  138.9622  161.9205 H       1  UNL1        0.1233
@<TRIPOS>BOND
     1    24    23    1
     2    24    25    1
     3    25    26    1
     4    26    27    1
     5    27    28    1
     6    28    29    1
     7    29    21    1
     8    21     1    1
     9     1     2   ar
    10     2     3   ar
    11     3     4   ar
    12     4    16    1
    13    16    17   am
    14    16    18    2
    15     4     5   ar
    16     5     6   ar
    17     6     7   ar
    18     7    10    1
    19    10    11   ar
    20    11    12   ar
    21    12    13   ar
    22    13    14   ar
    23    14    15   ar
    24     7     8   ar
    25     8     9   ar
    26    29    24    1
    27     9     1   ar
    28     9     5   ar
    29    15    10   ar
    30    25    30    1
    31    21    22    1
    32    17    19    1
    33    17    20    1
@<TRIPOS>MOLECULE
*****
 30 33 0 0 0
SMALL
GASTEIGER

@<TRIPOS>ATOM
      1 C         138.6593  139.5798  167.0340 C.ar    1  UNL1        0.1289
      2 N         138.1995  139.1917  168.4081 N.ar    1  UNL1       -0.2292
      3 C         138.7267  139.9198  169.6088 C.ar    1  UNL1        0.1053
      4 C         139.7137  141.0360  169.4356 C.ar    1  UNL1        0.0783
      5 C         140.1734  141.4241  168.0615 C.ar    1  UNL1        0.0380
      6 S         141.1307  142.4751  167.5830 S.2     1  UNL1       -0.0866
      7 C         141.1952  142.3965  166.0865 C.ar    1  UNL1        0.0296
      8 C         140.2777  141.2969  165.6401 C.ar    1  UNL1        0.0097
      9 C         139.6462  140.6959  166.8607 C.ar    1  UNL1        0.0380
     10 C         142.0305  143.2649  165.1931 C.ar    1  UNL1        0.0060
     11 C         143.5175  143.0753  165.1398 C.ar    1  UNL1        0.0005
     12 C         144.3527  143.9439  164.2464 C.ar    1  UNL1        0.0000
     13 C         143.7009  145.0020  163.4064 C.ar    1  UNL1        0.0000
     14 C         142.2139  145.1916  163.4597 C.ar    1  UNL1        0.0000
     15 C         141.3787  144.3230  164.3531 C.ar    1  UNL1        0.0005
     16 C         140.2408  141.7641  170.6364 C.2     1  UNL1        0.2448
     17 N         139.5906  143.0389  171.0858 N.am    1  UNL1       -0.3253
     18 O         141.4183  141.2173  171.3879 O.2     1  UNL1       -0.2703
     19 H         138.8178  143.3978  170.5926 H       1  UNL1        0.1453
     20 H         139.9366  143.5168  171.8739 H       1  UNL1        0.1453
     21 N         138.1321  138.8516  165.8332 N.pl3   1  UNL1       -0.3184
     22 H         137.1751  138.6279  165.7741 H       1  UNL1        0.1482
     23 C         137.8037  140.0649  163.1092 C.3     1  UNL1        0.0188
     24 C         138.8986  139.0710  163.3605 C.3     1  UNL1        0.0722
     25 N         139.8294  138.6837  162.2498 N.3     1  UNL1       -0.2972
     26 C         140.9244  137.6896  162.5012 C.3     1  UNL1        0.0686
     27 C         141.0885  137.0830  163.8631 C.3     1  UNL1        0.0188
     28 C         140.1578  137.4703  164.9739 C.3     1  UNL1        0.0223
     29 C         139.0628  138.4643  164.7225 C.3     1  UNL1        0.0847
     30 H         140.2784  139.5416  161.9293 H       1  UNL1        0.1233
@<TRIPOS>BOND
     1    24    23    1
     2    24    25    1
     3    25    26    1
     4    26    27    1
     5    27    28    1
     6    28    29    1
     7    29    21    1
     8    21     1    1
     9     1     2   ar
    10     2     3   ar
    11     3     4   ar
    12     4    16    1
    13    16    17   am
    14    16    18    2
    15     4     5   ar
    16     5     6   ar
    17     6     7   ar
    18     7    10    1
    19    10    11   ar
    20    11    12   ar
    21    12    13   ar
    22    13    14   ar
    23    14    15   ar
    24     7     8   ar
    25     8     9   ar
    26    29    24    1
    27     9     1   ar
    28     9     5   ar
    29    15    10   ar
    30    25    30    1
    31    21    22    1
    32    17    19    1
    33    17    20    1
@<TRIPOS>MOLECULE
*****
 30 33 0 0 0
SMALL
GASTEIGER

@<TRIPOS>ATOM
      1 C         138.7817  139.5624  167.5717 C.ar    1  UNL1        0.1289
      2 N         138.2102  139.5099  168.9575 N.ar    1  UNL1       -0.2292
      3 C         139.0205  139.9974  170.1218 C.ar    1  UNL1        0.1053
      4 C         140.4022  140.5376  169.9004 C.ar    1  UNL1        0.0783
      5 C         140.9737  140.5902  168.5145 C.ar    1  UNL1        0.0380
      6 S         142.2965  141.0663  167.9917 S.2     1  UNL1       -0.0866
      7 C         142.3038  140.8730  166.5042 C.ar    1  UNL1        0.0296
      8 C         140.9855  140.2774  166.1077 C.ar    1  UNL1        0.0097
      9 C         140.1634  140.1026  167.3501 C.ar    1  UNL1        0.0380
     10 C         143.4315  141.2152  165.5762 C.ar    1  UNL1        0.0060
     11 C         144.0998  140.1354  164.7778 C.ar    1  UNL1        0.0005
     12 C         145.2274  140.4777  163.8497 C.ar    1  UNL1        0.0000
     13 C         145.6868  141.8997  163.7201 C.ar    1  UNL1        0.0000
     14 C         145.0186  142.9795  164.5184 C.ar    1  UNL1        0.0000
     15 C         143.8909  142.6372  165.4465 C.ar    1  UNL1        0.0005
     16 C         141.2125  141.0252  171.0648 C.2     1  UNL1        0.2448
     17 N         142.5159  140.3635  171.4010 N.am    1  UNL1       -0.3253
     18 O         140.7192  142.1745  171.8929 O.2     1  UNL1       -0.2703
     19 H         142.8397  139.6092  170.8575 H       1  UNL1        0.1453
     20 H         143.0477  140.6835  172.1653 H       1  UNL1        0.1453
     21 N         137.9714  139.0748  166.4073 N.pl3   1  UNL1       -0.3184
     22 H         136.9989  138.9535  166.5008 H       1  UNL1        0.1482
     23 C         137.7365  141.0004  164.1188 C.3     1  UNL1        0.0188
     24 C         138.5254  139.7350  163.9563 C.3     1  UNL1        0.0722
     25 N         139.1968  139.4323  162.6496 N.3     1  UNL1       -0.2972
     26 C         139.9857  138.1668  162.4871 C.3     1  UNL1        0.0686
     27 C         140.1031  137.2041  163.6313 C.3     1  UNL1        0.0188
     28 C         139.4316  137.5067  164.9381 C.3     1  UNL1        0.0223
     29 C         138.6428  138.7721  165.1006 C.3     1  UNL1        0.0847
     30 H         139.8364  140.2042  162.4615 H       1  UNL1        0.1233
@<TRIPOS>BOND
     1    24    23    1
     2    24    25    1
     3    25    26    1
     4    26    27    1
     5    27    28    1
     6    28    29    1
     7    29    21    1
     8    21     1    1
     9     1     2   ar
    10     2     3   ar
    11     3     4   ar
    12     4    16    1
    13    16    17   am
    14    16    18    2
    15     4     5   ar
    16     5     6   ar
    17     6     7   ar
    18     7    10    1
    19    10    11   ar
    20    11    12   ar
    21    12    13   ar
    22    13    14   ar
    23    14    15   ar
    24     7     8   ar
    25     8     9   ar
    26    29    24    1
    27     9     1   ar
    28     9     5   ar
    29    15    10   ar
    30    25    30    1
    31    21    22    1
    32    17    19    1
    33    17    20    1
@<TRIPOS>MOLECULE
*****
 30 33 0 0 0
SMALL
GASTEIGER

@<TRIPOS>ATOM
      1 C         139.0039  139.7694  167.8224 C.ar    1  UNL1        0.1289
      2 N         138.1221  138.6102  167.4635 N.ar    1  UNL1       -0.2292
      3 C         137.9712  138.1987  166.0291 C.ar    1  UNL1        0.1053
      4 C         138.7020  138.9463  164.9533 C.ar    1  UNL1        0.0783
      5 C         139.5838  140.1054  165.3122 C.ar    1  UNL1        0.0380
      6 S         140.4226  141.0252  164.4754 S.2     1  UNL1       -0.0866
      7 C         141.0919  142.0053  165.3927 C.ar    1  UNL1        0.0296
      8 C         140.6668  141.6912  166.7965 C.ar    1  UNL1        0.0097
      9 C         139.7347  140.5170  166.7468 C.ar    1  UNL1        0.0380
     10 C         142.0230  143.1061  164.9789 C.ar    1  UNL1        0.0060
     11 C         141.4998  144.2796  164.2047 C.ar    1  UNL1        0.0005
     12 C         142.4309  145.3804  163.7910 C.ar    1  UNL1        0.0000
     13 C         143.8852  145.3079  164.1513 C.ar    1  UNL1        0.0000
     14 C         144.4084  144.1344  164.9255 C.ar    1  UNL1        0.0000
     15 C         143.4772  143.0336  165.3392 C.ar    1  UNL1        0.0005
     16 C         138.5510  138.5347  163.5188 C.2     1  UNL1        0.2448
     17 N         137.6928  139.3443  162.5926 N.am    1  UNL1       -0.3253
     18 O         139.2582  137.3133  163.0107 O.2     1  UNL1       -0.2703
     19 H         137.2287  140.1459  162.9261 H       1  UNL1        0.1453
     20 H         137.5937  139.0742  161.6511 H       1  UNL1        0.1453
     21 N         139.1548  140.1809  169.2569 N.pl3   1  UNL1       -0.3184
     22 H         138.3568  140.3045  169.8202 H       1  UNL1        0.1482
     23 C         139.8223  142.7976  170.5637 C.3     1  UNL1        0.0188
     24 C         140.8552  141.7127  170.4867 C.3     1  UNL1        0.0722
     25 N         142.2220  141.9360  171.0630 N.3     1  UNL1       -0.2972
     26 C         143.2549  140.8510  170.9860 C.3     1  UNL1        0.0686
     27 C         142.9212  139.5428  170.3327 C.3     1  UNL1        0.0188
     28 C         141.5544  139.3193  169.7562 C.3     1  UNL1        0.0223
     29 C         140.5215  140.4043  169.8333 C.3     1  UNL1        0.0847
     30 H         142.0931  142.1502  172.0519 H       1  UNL1        0.1233
@<TRIPOS>BOND
     1    24    23    1
     2    24    25    1
     3    25    26    1
     4    26    27    1
     5    27    28    1
     6    28    29    1
     7    29    21    1
     8    21     1    1
     9     1     2   ar
    10     2     3   ar
    11     3     4   ar
    12     4    16    1
    13    16    17   am
    14    16    18    2
    15     4     5   ar
    16     5     6   ar
    17     6     7   ar
    18     7    10    1
    19    10    11   ar
    20    11    12   ar
    21    12    13   ar
    22    13    14   ar
    23    14    15   ar
    24     7     8   ar
    25     8     9   ar
    26    29    24    1
    27     9     1   ar
    28     9     5   ar
    29    15    10   ar
    30    25    30    1
    31    21    22    1
    32    17    19    1
    33    17    20    1
@<TRIPOS>MOLECULE
*****
 30 33 0 0 0
SMALL
GASTEIGER

@<TRIPOS>ATOM
      1 C         143.3096  142.5956  167.0274 C.ar    1  UNL1        0.1289
      2 N         143.8239  142.5591  168.4360 N.ar    1  UNL1       -0.2292
      3 C         143.3184  141.5200  169.3923 C.ar    1  UNL1        0.1053
      4 C         142.2986  140.5172  168.9400 C.ar    1  UNL1        0.0783
      5 C         141.7844  140.5537  167.5314 C.ar    1  UNL1        0.0380
      6 S         140.7858  139.7019  166.8052 S.2     1  UNL1       -0.0866
      7 C         140.6742  140.2147  165.4000 C.ar    1  UNL1        0.0296
      8 C         141.6038  141.3834  165.2578 C.ar    1  UNL1        0.0097
      9 C         142.2899  141.5929  166.5751 C.ar    1  UNL1        0.0380
     10 C         139.7886  139.6568  164.3256 C.ar    1  UNL1        0.0060
     11 C         138.8961  140.5709  163.5395 C.ar    1  UNL1        0.0005
     12 C         138.0104  140.0129  162.4651 C.ar    1  UNL1        0.0000
     13 C         138.0172  138.5410  162.1767 C.ar    1  UNL1        0.0000
     14 C         138.9097  137.6269  162.9628 C.ar    1  UNL1        0.0000
     15 C         139.7954  138.1849  164.0372 C.ar    1  UNL1        0.0005
     16 C         141.7931  139.4780  169.8964 C.2     1  UNL1        0.2448
     17 N         142.7037  138.3806  170.3616 N.am    1  UNL1       -0.3253
     18 O         140.3770  139.5364  170.3876 O.2     1  UNL1       -0.2703
     19 H         143.6331  138.3423  170.0392 H       1  UNL1        0.1453
     20 H         142.3720  137.6986  170.9893 H       1  UNL1        0.1453
     21 N         143.8152  143.6348  166.0711 N.pl3   1  UNL1       -0.3184
     22 H         143.8829  144.5747  166.3561 H       1  UNL1        0.1482
     23 C         142.6843  145.1021  163.7114 C.3     1  UNL1        0.0188
     24 C         143.6521  143.9756  163.5007 C.3     1  UNL1        0.0722
     25 N         144.0545  143.5828  162.1101 N.3     1  UNL1       -0.2972
     26 C         145.0223  142.4563  161.8993 C.3     1  UNL1        0.0686
     27 C         145.5877  141.7227  163.0791 C.3     1  UNL1        0.0188
     28 C         145.1854  142.1155  164.4698 C.3     1  UNL1        0.0223
     29 C         144.2176  143.2420  164.6805 C.3     1  UNL1        0.0847
     30 H         144.4666  144.4098  161.6781 H       1  UNL1        0.1233
@<TRIPOS>BOND
     1    24    23    1
     2    24    25    1
     3    25    26    1
     4    26    27    1
     5    27    28    1
     6    28    29    1
     7    29    21    1
     8    21     1    1
     9     1     2   ar
    10     2     3   ar
    11     3     4   ar
    12     4    16    1
    13    16    17   am
    14    16    18    2
    15     4     5   ar
    16     5     6   ar
    17     6     7   ar
    18     7    10    1
    19    10    11   ar
    20    11    12   ar
    21    12    13   ar
    22    13    14   ar
    23    14    15   ar
    24     7     8   ar
    25     8     9   ar
    26    29    24    1
    27     9     1   ar
    28     9     5   ar
    29    15    10   ar
    30    25    30    1
    31    21    22    1
    32    17    19    1
    33    17    20    1
@<TRIPOS>MOLECULE
*****
 30 33 0 0 0
SMALL
GASTEIGER

@<TRIPOS>ATOM
      1 C         138.8231  142.5727  163.8707 C.ar    1  UNL1        0.1289
      2 N         137.9662  141.5626  163.1668 N.ar    1  UNL1       -0.2292
      3 C         137.7638  140.2027  163.7664 C.ar    1  UNL1        0.1053
      4 C         138.4184  139.8527  165.0700 C.ar    1  UNL1        0.0783
      5 C         139.2753  140.8628  165.7738 C.ar    1  UNL1        0.0380
      6 S         140.0426  140.8050  167.0614 S.2     1  UNL1       -0.0866
      7 C         140.7193  142.1293  167.2575 C.ar    1  UNL1        0.0296
      8 C         140.3701  143.0055  166.0912 C.ar    1  UNL1        0.0097
      9 C         139.4776  142.2228  165.1742 C.ar    1  UNL1        0.0380
     10 C         141.5919  142.5105  168.4164 C.ar    1  UNL1        0.0060
     11 C         143.0199  142.0536  168.4622 C.ar    1  UNL1        0.0005
     12 C         143.8925  142.4349  169.6212 C.ar    1  UNL1        0.0000
     13 C         143.3371  143.2729  170.7345 C.ar    1  UNL1        0.0000
     14 C         141.9091  143.7297  170.6887 C.ar    1  UNL1        0.0000
     15 C         141.0365  143.3485  169.5297 C.ar    1  UNL1        0.0005
     16 C         138.2160  138.4927  165.6695 C.2     1  UNL1        0.2448
     17 N         138.9167  137.3029  165.0836 N.am    1  UNL1       -0.3253
     18 O         137.3128  138.3226  166.8550 O.2     1  UNL1       -0.2703
     19 H         139.5094  137.4146  164.3055 H       1  UNL1        0.1453
     20 H         138.7838  136.4103  165.4771 H       1  UNL1        0.1453
     21 N         139.0254  143.9326  163.2711 N.pl3   1  UNL1       -0.3184
     22 H         138.5757  144.7155  163.6635 H       1  UNL1        0.1482
     23 C         141.6728  145.3165  163.5476 C.3     1  UNL1        0.0188
     24 C         141.2367  144.7917  162.2118 C.3     1  UNL1        0.0722
     25 N         142.1243  144.9589  161.0142 N.3     1  UNL1       -0.2972
     26 C         141.6881  144.4340  159.6783 C.3     1  UNL1        0.0686
     27 C         140.3645  143.7422  159.5400 C.3     1  UNL1        0.0188
     28 C         139.4769  143.5750  160.7377 C.3     1  UNL1        0.0223
     29 C         139.9130  144.0998  162.0735 C.3     1  UNL1        0.0847
     30 H         143.0080  144.5005  161.2364 H       1  UNL1        0.1233
@<TRIPOS>BOND
     1    24    23    1
     2    24    25    1
     3    25    26    1
     4    26    27    1
     5    27    28    1
     6    28    29    1
     7    29    21    1
     8    21     1    1
     9     1     2   ar
    10     2     3   ar
    11     3     4   ar
    12     4    16    1
    13    16    17   am
    14    16    18    2
    15     4     5   ar
    16     5     6   ar
    17     6     7   ar
    18     7    10    1
    19    10    11   ar
    20    11    12   ar
    21    12    13   ar
    22    13    14   ar
    23    14    15   ar
    24     7     8   ar
    25     8     9   ar
    26    29    24    1
    27     9     1   ar
    28     9     5   ar
    29    15    10   ar
    30    25    30    1
    31    21    22    1
    32    17    19    1
    33    17    20    1
@<TRIPOS>MOLECULE
*****
 30 33 0 0 0
SMALL
GASTEIGER

@<TRIPOS>ATOM
      1 C         141.9788  141.5531  162.5587 C.ar    1  UNL1        0.1289
      2 N         141.9581  140.5125  161.4786 N.ar    1  UNL1       -0.2292
      3 C         141.3862  139.1540  161.7567 C.ar    1  UNL1        0.1053
      4 C         140.8350  138.8360  163.1151 C.ar    1  UNL1        0.0783
      5 C         140.8557  139.8766  164.1953 C.ar    1  UNL1        0.0380
      6 S         140.3877  139.8536  165.6202 S.2     1  UNL1       -0.0866
      7 C         140.6704  141.1979  166.2226 C.ar    1  UNL1        0.0296
      8 C         141.3131  142.0518  165.1701 C.ar    1  UNL1        0.0097
      9 C         141.4276  141.2352  163.9171 C.ar    1  UNL1        0.0380
     10 C         140.3641  141.6152  167.6305 C.ar    1  UNL1        0.0060
     11 C         140.6597  143.0157  168.0788 C.ar    1  UNL1        0.0005
     12 C         140.3534  143.4329  169.4867 C.ar    1  UNL1        0.0000
     13 C         139.7515  142.4496  170.4463 C.ar    1  UNL1        0.0000
     14 C         139.4559  141.0490  169.9980 C.ar    1  UNL1        0.0000
     15 C         139.7622  140.6319  168.5901 C.ar    1  UNL1        0.0005
     16 C         140.2631  137.4775  163.3933 C.2     1  UNL1        0.2448
     17 N         141.1588  136.3672  163.8567 N.am    1  UNL1       -0.3253
     18 O         138.7954  137.2294  163.2079 O.2     1  UNL1       -0.2703
     19 H         142.1221  136.5301  163.9783 H       1  UNL1        0.1453
     20 H         140.7835  135.4755  164.0392 H       1  UNL1        0.1453
     21 N         142.5507  142.9116  162.2805 N.pl3   1  UNL1       -0.3184
     22 H         143.5240  143.0538  162.3216 H       1  UNL1        0.1482
     23 C         142.4238  145.3152  164.0712 C.3     1  UNL1        0.0188
     24 C         141.5762  145.2552  162.8350 C.3     1  UNL1        0.0722
     25 N         140.6652  146.3971  162.4942 N.3     1  UNL1       -0.2972
     26 C         139.8176  146.3371  161.2579 C.3     1  UNL1        0.0686
     27 C         139.8811  145.1354  160.3627 C.3     1  UNL1        0.0188
     28 C         140.7922  143.9934  160.7035 C.3     1  UNL1        0.0223
     29 C         141.6397  144.0534  161.9396 C.3     1  UNL1        0.0847
     30 H         141.2523  147.2268  162.4087 H       1  UNL1        0.1233
@<TRIPOS>BOND
     1    24    23    1
     2    24    25    1
     3    25    26    1
     4    26    27    1
     5    27    28    1
     6    28    29    1
     7    29    21    1
     8    21     1    1
     9     1     2   ar
    10     2     3   ar
    11     3     4   ar
    12     4    16    1
    13    16    17   am
    14    16    18    2
    15     4     5   ar
    16     5     6   ar
    17     6     7   ar
    18     7    10    1
    19    10    11   ar
    20    11    12   ar
    21    12    13   ar
    22    13    14   ar
    23    14    15   ar
    24     7     8   ar
    25     8     9   ar
    26    29    24    1
    27     9     1   ar
    28     9     5   ar
    29    15    10   ar
    30    25    30    1
    31    21    22    1
    32    17    19    1
    33    17    20    1
@<TRIPOS>MOLECULE
*****
 30 33 0 0 0
SMALL
GASTEIGER

@<TRIPOS>ATOM
      1 C         143.2539  142.3729  166.9756 C.ar    1  UNL1        0.1289
      2 N         143.4533  142.6714  168.4320 N.ar    1  UNL1       -0.2292
      3 C         142.4686  142.1640  169.4432 C.ar    1  UNL1        0.1053
      4 C         141.2842  141.3582  168.9982 C.ar    1  UNL1        0.0783
      5 C         141.0848  141.0597  167.5418 C.ar    1  UNL1        0.0380
      6 S         140.0207  140.2965  166.8102 S.2     1  UNL1       -0.0866
      7 C         140.3478  140.3322  165.3468 C.ar    1  UNL1        0.0296
      8 C         141.6141  141.1174  165.1739 C.ar    1  UNL1        0.0097
      9 C         142.0696  141.5670  166.5305 C.ar    1  UNL1        0.0380
     10 C         139.5489  139.6946  164.2489 C.ar    1  UNL1        0.0060
     11 C         139.6664  138.2211  163.9945 C.ar    1  UNL1        0.0005
     12 C         138.8675  137.5835  162.8966 C.ar    1  UNL1        0.0000
     13 C         137.9511  138.4195  162.0532 C.ar    1  UNL1        0.0000
     14 C         137.8336  139.8931  162.3076 C.ar    1  UNL1        0.0000
     15 C         138.6325  140.5306  163.4055 C.ar    1  UNL1        0.0005
     16 C         140.2994  140.8508  170.0096 C.2     1  UNL1        0.2448
     17 N         140.4876  139.4962  170.6257 N.am    1  UNL1       -0.3253
     18 O         139.1265  141.6982  170.4047 O.2     1  UNL1       -0.2703
     19 H         141.2575  138.9401  170.3662 H       1  UNL1        0.1453
     20 H         139.8413  139.1633  171.2894 H       1  UNL1        0.1453
     21 N         144.2387  142.8803  165.9643 N.pl3   1  UNL1       -0.3184
     22 H         145.1989  142.9028  166.1805 H       1  UNL1        0.1482
     23 C         145.4541  141.7640  163.4589 C.3     1  UNL1        0.0188
     24 C         144.3683  142.7952  163.3709 C.3     1  UNL1        0.0722
     25 N         143.8902  143.2682  162.0301 N.3     1  UNL1       -0.2972
     26 C         142.8043  144.2994  161.9421 C.3     1  UNL1        0.0686
     27 C         142.1966  144.8575  163.1947 C.3     1  UNL1        0.0188
     28 C         142.6747  144.3844  164.5355 C.3     1  UNL1        0.0223
     29 C         143.7606  143.3533  164.6235 C.3     1  UNL1        0.0847
     30 H         143.5557  142.4449  161.5295 H       1  UNL1        0.1233
@<TRIPOS>BOND
     1    24    23    1
     2    24    25    1
     3    25    26    1
     4    26    27    1
     5    27    28    1
     6    28    29    1
     7    29    21    1
     8    21     1    1
     9     1     2   ar
    10     2     3   ar
    11     3     4   ar
    12     4    16    1
    13    16    17   am
    14    16    18    2
    15     4     5   ar
    16     5     6   ar
    17     6     7   ar
    18     7    10    1
    19    10    11   ar
    20    11    12   ar
    21    12    13   ar
    22    13    14   ar
    23    14    15   ar
    24     7     8   ar
    25     8     9   ar
    26    29    24    1
    27     9     1   ar
    28     9     5   ar
    29    15    10   ar
    30    25    30    1
    31    21    22    1
    32    17    19    1
    33    17    20    1
