@<TRIPOS>MOLECULE
*****
 20 20 0 0 0
SMALL
GASTEIGER

@<TRIPOS>ATOM
      1 N         141.7355  141.7715  169.4151 N.3     1  UNL1       -0.2618
      2 C         141.7204  143.1533  169.9988 C.3     1  UNL1        0.0730
      3 C         140.4994  144.0132  169.8591 C.3     1  UNL1        0.0188
      4 C         142.7797  141.3948  168.4065 C.3     1  UNL1        0.0730
      5 C         142.9761  142.2361  167.1802 C.3     1  UNL1        0.0174
      6 C         141.8614  142.3873  166.1879 C.3     1  UNL1        0.0014
      7 C         141.2607  141.1729  165.5440 C.3     1  UNL1        0.0000
      8 C         142.1484  140.0697  165.0494 C.3     1  UNL1        0.0000
      9 C         143.6205  138.3201  166.2831 C.3     1  UNL1        0.0000
     10 C         142.2712  138.7971  165.8339 C.3     1  UNL1        0.0000
     11 C         140.7062  140.7666  169.8402 C.3     1  UNL1        0.1498
     12 C         139.7947  140.1497  168.8211 C.1     1  UNL1       -0.0727
     13 C         138.8831  139.5327  167.8021 C.1     1  UNL1       -0.0849
     14 C         137.9716  138.9157  166.7830 C.3     1  UNL1        0.1023
     15 C         138.3882  138.8549  165.3433 C.ar    1  UNL1       -0.0092
     16 C         139.0637  137.6267  164.8093 C.ar    1  UNL1       -0.0033
     17 C         139.4803  137.5659  163.3696 C.ar    1  UNL1       -0.0003
     18 C         139.2213  138.7331  162.4639 C.ar    1  UNL1       -0.0000
     19 C         138.5457  139.9613  162.9979 C.ar    1  UNL1       -0.0003
     20 C         138.1291  140.0221  164.4376 C.ar    1  UNL1       -0.0033
@<TRIPOS>BOND
     1     9    10    1
     2    10     8    1
     3     8     7    1
     4     7     6    1
     5     6     5    1
     6     5     4    1
     7     4     1    1
     8     1     2    1
     9     2     3    1
    10     1    11    1
    11    11    12    1
    12    12    13    3
    13    13    14    1
    14    14    15    1
    15    15    16   ar
    16    16    17   ar
    17    17    18   ar
    18    18    19   ar
    19    19    20   ar
    20    20    15   ar
@<TRIPOS>MOLECULE
*****
 20 20 0 0 0
SMALL
GASTEIGER

@<TRIPOS>ATOM
      1 N         141.7400  141.1720  169.8779 N.3     1  UNL1       -0.2618
      2 C         142.6399  140.1604  170.5238 C.3     1  UNL1        0.0730
      3 C         142.6517  138.7439  170.0305 C.3     1  UNL1        0.0188
      4 C         142.3294  142.3430  169.1489 C.3     1  UNL1        0.0730
      5 C         142.8901  142.1626  167.7694 C.3     1  UNL1        0.0174
      6 C         141.9700  142.1205  166.5854 C.3     1  UNL1        0.0014
      7 C         141.6991  140.8183  165.8921 C.3     1  UNL1        0.0000
      8 C         142.2463  139.5405  166.4557 C.3     1  UNL1        0.0000
      9 C         144.0823  139.1477  164.6599 C.3     1  UNL1        0.0000
     10 C         143.0266  138.6071  165.5782 C.3     1  UNL1        0.0000
     11 C         140.2509  141.0126  169.9611 C.3     1  UNL1        0.1498
     12 C         139.5114  140.2948  168.8712 C.1     1  UNL1       -0.0727
     13 C         138.7718  139.5771  167.7812 C.1     1  UNL1       -0.0849
     14 C         138.0323  138.8594  166.6913 C.3     1  UNL1        0.1023
     15 C         138.6152  138.7873  165.3111 C.ar    1  UNL1       -0.0092
     16 C         138.3839  139.9066  164.3398 C.ar    1  UNL1       -0.0033
     17 C         138.9668  139.8344  162.9596 C.ar    1  UNL1       -0.0003
     18 C         139.7811  138.6430  162.5507 C.ar    1  UNL1       -0.0000
     19 C         140.0125  137.5236  163.5220 C.ar    1  UNL1       -0.0003
     20 C         139.4296  137.5958  164.9022 C.ar    1  UNL1       -0.0033
@<TRIPOS>BOND
     1     9    10    1
     2    10     8    1
     3     8     7    1
     4     7     6    1
     5     6     5    1
     6     5     4    1
     7     4     1    1
     8     1     2    1
     9     2     3    1
    10     1    11    1
    11    11    12    1
    12    12    13    3
    13    13    14    1
    14    14    15    1
    15    15    16   ar
    16    16    17   ar
    17    17    18   ar
    18    18    19   ar
    19    19    20   ar
    20    20    15   ar
@<TRIPOS>MOLECULE
*****
 20 20 0 0 0
SMALL
GASTEIGER

@<TRIPOS>ATOM
      1 N         144.9035  142.8768  163.5861 N.3     1  UNL1       -0.2618
      2 C         144.3975  143.6786  162.4236 C.3     1  UNL1        0.0730
      3 C         143.0709  144.3731  162.5123 C.3     1  UNL1        0.0188
      4 C         145.6152  141.5781  163.3483 C.3     1  UNL1        0.0730
      5 C         144.8578  140.2850  163.4127 C.3     1  UNL1        0.0174
      6 C         144.9916  139.3964  164.6138 C.3     1  UNL1        0.0014
      7 C         143.7648  138.9031  165.3221 C.3     1  UNL1        0.0000
      8 C         142.4461  138.8765  164.6079 C.3     1  UNL1        0.0000
      9 C         140.4247  137.3905  163.9329 C.3     1  UNL1        0.0000
     10 C         141.4238  137.8364  164.9590 C.3     1  UNL1        0.0000
     11 C         144.6977  143.3739  164.9863 C.3     1  UNL1        0.1498
     12 C         143.6293  142.7684  165.8476 C.1     1  UNL1       -0.0727
     13 C         142.5609  142.1629  166.7090 C.1     1  UNL1       -0.0849
     14 C         141.4925  141.5574  167.5704 C.3     1  UNL1        0.1023
     15 C         140.3168  140.8738  166.9376 C.ar    1  UNL1       -0.0092
     16 C         139.8491  141.2932  165.5755 C.ar    1  UNL1       -0.0033
     17 C         138.6734  140.6095  164.9428 C.ar    1  UNL1       -0.0003
     18 C         137.9654  139.5066  165.6722 C.ar    1  UNL1       -0.0000
     19 C         138.4330  139.0872  167.0343 C.ar    1  UNL1       -0.0003
     20 C         139.6087  139.7708  167.6670 C.ar    1  UNL1       -0.0033
@<TRIPOS>BOND
     1     9    10    1
     2    10     8    1
     3     8     7    1
     4     7     6    1
     5     6     5    1
     6     5     4    1
     7     4     1    1
     8     1     2    1
     9     2     3    1
    10     1    11    1
    11    11    12    1
    12    12    13    3
    13    13    14    1
    14    14    15    1
    15    15    16   ar
    16    16    17   ar
    17    17    18   ar
    18    18    19   ar
    19    19    20   ar
    20    20    15   ar
@<TRIPOS>MOLECULE
*****
 20 20 0 0 0
SMALL
GASTEIGER

@<TRIPOS>ATOM
      1 N         138.3573  143.5000  162.1645 N.3     1  UNL1       -0.2618
      2 C         139.4882  143.9446  161.2849 C.3     1  UNL1        0.0730
      3 C         140.4476  144.9913  161.7685 C.3     1  UNL1        0.0188
      4 C         137.6909  144.4811  163.0827 C.3     1  UNL1        0.0730
      5 C         137.8138  144.3202  164.5689 C.3     1  UNL1        0.0174
      6 C         139.1480  144.4876  165.2337 C.3     1  UNL1        0.0014
      7 C         139.8460  143.2986  165.8245 C.3     1  UNL1        0.0000
      8 C         141.2611  142.9895  165.4349 C.3     1  UNL1        0.0000
      9 C         142.8653  141.6321  163.9073 C.3     1  UNL1        0.0000
     10 C         141.5486  142.3166  164.1256 C.3     1  UNL1        0.0000
     11 C         137.8930  142.0742  162.1257 C.3     1  UNL1        0.1498
     12 C         138.0277  141.2082  163.3431 C.1     1  UNL1       -0.0727
     13 C         138.1623  140.3422  164.5604 C.1     1  UNL1       -0.0849
     14 C         138.2970  139.4762  165.7778 C.3     1  UNL1        0.1023
     15 C         139.5149  139.5875  166.6463 C.ar    1  UNL1       -0.0092
     16 C         140.8743  139.3256  166.0690 C.ar    1  UNL1       -0.0033
     17 C         142.0922  139.4369  166.9375 C.ar    1  UNL1       -0.0003
     18 C         141.9507  139.8100  168.3834 C.ar    1  UNL1       -0.0000
     19 C         140.5912  140.0719  168.9608 C.ar    1  UNL1       -0.0003
     20 C         139.3734  139.9606  168.0922 C.ar    1  UNL1       -0.0033
@<TRIPOS>BOND
     1     9    10    1
     2    10     8    1
     3     8     7    1
     4     7     6    1
     5     6     5    1
     6     5     4    1
     7     4     1    1
     8     1     2    1
     9     2     3    1
    10     1    11    1
    11    11    12    1
    12    12    13    3
    13    13    14    1
    14    14    15    1
    15    15    16   ar
    16    16    17   ar
    17    17    18   ar
    18    18    19   ar
    19    19    20   ar
    20    20    15   ar
@<TRIPOS>MOLECULE
*****
 20 20 0 0 0
SMALL
GASTEIGER

@<TRIPOS>ATOM
      1 N         141.0565  141.3301  169.8238 N.3     1  UNL1       -0.2618
      2 C         140.9623  142.6261  170.5733 C.3     1  UNL1        0.0730
      3 C         140.4857  143.8643  169.8733 C.3     1  UNL1        0.0188
      4 C         142.3318  140.9574  169.1276 C.3     1  UNL1        0.0730
      5 C         142.7839  141.7318  167.9252 C.3     1  UNL1        0.0174
      6 C         142.0040  141.6539  166.6462 C.3     1  UNL1        0.0014
      7 C         140.9027  142.6364  166.3782 C.3     1  UNL1        0.0000
      8 C         140.1441  142.5785  165.0856 C.3     1  UNL1        0.0000
      9 C         138.6069  144.6707  165.1856 C.3     1  UNL1        0.0000
     10 C         138.7794  143.1937  164.9886 C.3     1  UNL1        0.0000
     11 C         139.8755  140.4069  169.7706 C.3     1  UNL1        0.1498
     12 C         139.3414  139.9479  168.4463 C.1     1  UNL1       -0.0727
     13 C         138.8073  139.4888  167.1218 C.1     1  UNL1       -0.0849
     14 C         138.2732  139.0298  165.7975 C.3     1  UNL1        0.1023
     15 C         139.2148  138.5356  164.7395 C.ar    1  UNL1       -0.0092
     16 C         140.6337  138.2027  165.0945 C.ar    1  UNL1       -0.0033
     17 C         141.5753  137.7086  164.0365 C.ar    1  UNL1       -0.0003
     18 C         141.0981  137.5474  162.6237 C.ar    1  UNL1       -0.0000
     19 C         139.6792  137.8803  162.2688 C.ar    1  UNL1       -0.0003
     20 C         138.7376  138.3744  163.3267 C.ar    1  UNL1       -0.0033
@<TRIPOS>BOND
     1     9    10    1
     2    10     8    1
     3     8     7    1
     4     7     6    1
     5     6     5    1
     6     5     4    1
     7     4     1    1
     8     1     2    1
     9     2     3    1
    10     1    11    1
    11    11    12    1
    12    12    13    3
    13    13    14    1
    14    14    15    1
    15    15    16   ar
    16    16    17   ar
    17    17    18   ar
    18    18    19   ar
    19    19    20   ar
    20    20    15   ar
@<TRIPOS>MOLECULE
*****
 20 20 0 0 0
SMALL
GASTEIGER

@<TRIPOS>ATOM
      1 N         138.8134  144.6786  163.6563 N.3     1  UNL1       -0.2618
      2 C         139.9484  145.2637  162.8692 C.3     1  UNL1        0.0730
      3 C         139.6674  146.1921  161.7250 C.3     1  UNL1        0.0188
      4 C         137.6752  144.0079  162.9459 C.3     1  UNL1        0.0730
      5 C         137.8413  142.6171  162.4092 C.3     1  UNL1        0.0174
      6 C         137.4995  141.4359  163.2683 C.3     1  UNL1        0.0014
      7 C         138.5017  140.9093  164.2524 C.3     1  UNL1        0.0000
      8 C         138.8248  139.4449  164.2829 C.3     1  UNL1        0.0000
      9 C         138.6865  139.3282  166.8746 C.3     1  UNL1        0.0000
     10 C         139.2076  138.7880  165.5759 C.3     1  UNL1        0.0000
     11 C         138.8167  144.7641  165.1539 C.3     1  UNL1        0.1498
     12 C         139.6485  143.8093  165.9578 C.1     1  UNL1       -0.0727
     13 C         140.4804  142.8544  166.7617 C.1     1  UNL1       -0.0849
     14 C         141.3122  141.8996  167.5657 C.3     1  UNL1        0.1023
     15 C         142.0675  140.8008  166.8785 C.ar    1  UNL1       -0.0092
     16 C         142.5409  139.6124  167.6619 C.ar    1  UNL1       -0.0033
     17 C         143.2961  138.5136  166.9747 C.ar    1  UNL1       -0.0003
     18 C         143.5780  138.6031  165.5042 C.ar    1  UNL1       -0.0000
     19 C         143.1047  139.7915  164.7209 C.ar    1  UNL1       -0.0003
     20 C         142.3494  140.8903  165.4080 C.ar    1  UNL1       -0.0033
@<TRIPOS>BOND
     1     9    10    1
     2    10     8    1
     3     8     7    1
     4     7     6    1
     5     6     5    1
     6     5     4    1
     7     4     1    1
     8     1     2    1
     9     2     3    1
    10     1    11    1
    11    11    12    1
    12    12    13    3
    13    13    14    1
    14    14    15    1
    15    15    16   ar
    16    16    17   ar
    17    17    18   ar
    18    18    19   ar
    19    19    20   ar
    20    20    15   ar
@<TRIPOS>MOLECULE
*****
 20 20 0 0 0
SMALL
GASTEIGER

@<TRIPOS>ATOM
      1 N         144.7059  143.1007  163.7258 N.3     1  UNL1       -0.2618
      2 C         145.4690  141.8899  163.2767 C.3     1  UNL1        0.0730
      3 C         144.7377  140.6230  162.9448 C.3     1  UNL1        0.0188
      4 C         144.1466  144.0536  162.7113 C.3     1  UNL1        0.0730
      5 C         142.6796  144.0405  162.3989 C.3     1  UNL1        0.0174
      6 C         141.7612  145.0188  163.0694 C.3     1  UNL1        0.0014
      7 C         140.9003  144.5755  164.2149 C.3     1  UNL1        0.0000
      8 C         140.4444  143.1491  164.3023 C.3     1  UNL1        0.0000
      9 C         138.0864  142.0929  164.5752 C.3     1  UNL1        0.0000
     10 C         139.2756  142.7871  165.1701 C.3     1  UNL1        0.0000
     11 C         144.5021  143.3586  165.1893 C.3     1  UNL1        0.1498
     12 C         143.5692  142.4910  165.9810 C.1     1  UNL1       -0.0727
     13 C         142.6362  141.6233  166.7727 C.1     1  UNL1       -0.0849
     14 C         141.7032  140.7557  167.5644 C.3     1  UNL1        0.1023
     15 C         140.6657  139.9323  166.8604 C.ar    1  UNL1       -0.0092
     16 C         140.9996  139.2521  165.5659 C.ar    1  UNL1       -0.0033
     17 C         139.9621  138.4287  164.8619 C.ar    1  UNL1       -0.0003
     18 C         138.5907  138.2855  165.4524 C.ar    1  UNL1       -0.0000
     19 C         138.2568  138.9657  166.7469 C.ar    1  UNL1       -0.0003
     20 C         139.2944  139.7891  167.4509 C.ar    1  UNL1       -0.0033
@<TRIPOS>BOND
     1     9    10    1
     2    10     8    1
     3     8     7    1
     4     7     6    1
     5     6     5    1
     6     5     4    1
     7     4     1    1
     8     1     2    1
     9     2     3    1
    10     1    11    1
    11    11    12    1
    12    12    13    3
    13    13    14    1
    14    14    15    1
    15    15    16   ar
    16    16    17   ar
    17    17    18   ar
    18    18    19   ar
    19    19    20   ar
    20    20    15   ar
@<TRIPOS>MOLECULE
*****
 20 20 0 0 0
SMALL
GASTEIGER

@<TRIPOS>ATOM
      1 N         139.2816  138.1516  164.3630 N.3     1  UNL1       -0.2618
      2 C         138.4480  137.7100  165.5292 C.3     1  UNL1        0.0730
      3 C         138.0720  138.6936  166.5975 C.3     1  UNL1        0.0188
      4 C         138.6186  138.6200  163.1017 C.3     1  UNL1        0.0730
      5 C         138.5032  140.0879  162.8154 C.3     1  UNL1        0.0174
      6 C         137.7024  140.9692  163.7276 C.3     1  UNL1        0.0014
      7 C         138.4005  141.8932  164.6810 C.3     1  UNL1        0.0000
      8 C         139.6446  142.6132  164.2522 C.3     1  UNL1        0.0000
      9 C         138.7513  144.8015  165.3309 C.3     1  UNL1        0.0000
     10 C         139.8320  144.0599  164.6014 C.3     1  UNL1        0.0000
     11 C         140.7784  138.1248  164.4581 C.3     1  UNL1        0.1498
     12 C         141.5070  139.2472  165.1357 C.1     1  UNL1       -0.0727
     13 C         142.2358  140.3697  165.8133 C.1     1  UNL1       -0.0849
     14 C         142.9644  141.4921  166.4909 C.3     1  UNL1        0.1023
     15 C         142.3793  142.1369  167.7123 C.ar    1  UNL1       -0.0092
     16 C         143.2223  142.3229  168.9390 C.ar    1  UNL1       -0.0033
     17 C         142.6372  142.9677  170.1604 C.ar    1  UNL1       -0.0003
     18 C         141.2091  143.4264  170.1552 C.ar    1  UNL1       -0.0000
     19 C         140.3661  143.2404  168.9286 C.ar    1  UNL1       -0.0003
     20 C         140.9512  142.5956  167.7071 C.ar    1  UNL1       -0.0033
@<TRIPOS>BOND
     1     9    10    1
     2    10     8    1
     3     8     7    1
     4     7     6    1
     5     6     5    1
     6     5     4    1
     7     4     1    1
     8     1     2    1
     9     2     3    1
    10     1    11    1
    11    11    12    1
    12    12    13    3
    13    13    14    1
    14    14    15    1
    15    15    16   ar
    16    16    17   ar
    17    17    18   ar
    18    18    19   ar
    19    19    20   ar
    20    20    15   ar
@<TRIPOS>MOLECULE
*****
 20 20 0 0 0
SMALL
GASTEIGER

@<TRIPOS>ATOM
      1 N         141.3823  141.1919  169.5818 N.3     1  UNL1       -0.2618
      2 C         140.2571  141.1007  170.5696 C.3     1  UNL1        0.0730
      3 C         138.9323  140.5380  170.1474 C.3     1  UNL1        0.0188
      4 C         141.5566  142.4318  168.7559 C.3     1  UNL1        0.0730
      5 C         140.4022  142.9767  167.9681 C.3     1  UNL1        0.0174
      6 C         140.3894  142.8531  166.4732 C.3     1  UNL1        0.0014
      7 C         140.4455  141.4981  165.8323 C.3     1  UNL1        0.0000
      8 C         139.3013  141.0194  164.9887 C.3     1  UNL1        0.0000
      9 C         138.7516  139.1575  166.7152 C.3     1  UNL1        0.0000
     10 C         138.3642  139.9750  165.5188 C.3     1  UNL1        0.0000
     11 C         142.3332  140.0432  169.4201 C.3     1  UNL1        0.1498
     12 C         142.6247  139.4975  168.0537 C.1     1  UNL1       -0.0727
     13 C         142.9161  138.9518  166.6871 C.1     1  UNL1       -0.0849
     14 C         143.2076  138.4061  165.3207 C.3     1  UNL1        0.1023
     15 C         142.1251  138.3645  164.2831 C.ar    1  UNL1       -0.0092
     16 C         141.0145  137.3629  164.3976 C.ar    1  UNL1       -0.0033
     17 C         139.9320  137.3214  163.3600 C.ar    1  UNL1       -0.0003
     18 C         139.9603  138.2815  162.2079 C.ar    1  UNL1       -0.0000
     19 C         141.0709  139.2831  162.0934 C.ar    1  UNL1       -0.0003
     20 C         142.1534  139.3246  163.1310 C.ar    1  UNL1       -0.0033
@<TRIPOS>BOND
     1     9    10    1
     2    10     8    1
     3     8     7    1
     4     7     6    1
     5     6     5    1
     6     5     4    1
     7     4     1    1
     8     1     2    1
     9     2     3    1
    10     1    11    1
    11    11    12    1
    12    12    13    3
    13    13    14    1
    14    14    15    1
    15    15    16   ar
    16    16    17   ar
    17    17    18   ar
    18    18    19   ar
    19    19    20   ar
    20    20    15   ar
