@<TRIPOS>MOLECULE
*****
 28 32 0 0 0
SMALL
GASTEIGER

@<TRIPOS>ATOM
      1 C         140.8423  140.0444  167.0602 C.ar    1  UNL1        0.1755
      2 N         140.9072  139.5560  168.4770 N.ar    1  UNL1       -0.2192
      3 C         140.7211  140.7366  169.3833 C.ar    1  UNL1        0.1186
      4 C         140.6922  140.8599  170.8780 C.ar    1  UNL1        0.1194
      5 N         140.4833  142.2013  171.5159 N.ar    1  UNL1       -0.2406
      6 C         140.3034  143.4194  170.6592 C.ar    1  UNL1        0.1005
      7 C         140.3323  143.2961  169.1646 C.ar    1  UNL1        0.0398
      8 C         140.5412  141.9547  168.5266 C.ar    1  UNL1        0.0865
      9 N         140.6161  141.5269  167.0909 N.ar    1  UNL1       -0.2853
     10 C         140.4874  142.4241  165.8957 C.ar    1  UNL1        0.0658
     11 C         139.1352  142.7035  165.3098 C.ar    1  UNL1        0.0173
     12 C         139.0065  143.6007  164.1146 C.ar    1  UNL1       -0.0028
     13 C         140.2300  144.2184  163.5053 C.ar    1  UNL1       -0.0224
     14 C         141.5823  143.9390  164.0912 C.ar    1  UNL1       -0.0026
     15 C         142.8059  144.5567  163.4819 C.ar    1  UNL1       -0.0003
     16 C         144.1581  144.2773  164.0677 C.ar    1  UNL1       -0.0000
     17 C         144.2868  143.3801  165.2630 C.ar    1  UNL1        0.0000
     18 C         143.0633  142.7624  165.8723 C.ar    1  UNL1        0.0014
     19 C         141.7110  143.0418  165.2864 C.ar    1  UNL1        0.0159
     20 C         140.1013  145.1156  162.3101 C.3     1  UNL1        0.0224
     21 C         139.6148  146.3920  161.6903 C.3     1  UNL1        0.0047
     22 C         140.3649  145.3932  160.8598 C.3     1  UNL1        0.0047
     23 S         140.9796  139.1987  165.8290 S.3     1  UNL1       -0.0722
     24 C         138.3992  138.9106  165.7363 C.3     1  UNL1        0.0181
     25 C         139.7613  138.6011  165.1898 C.3     1  UNL1        0.0910
     26 C         139.9053  137.6937  164.0040 C.2     1  UNL1        0.0605
     27 O         141.1719  136.9151  163.8047 O.co2   1  UNL1       -0.5483
     28 O         138.7827  137.5649  163.0175 O.co2   1  UNL1       -0.5483
@<TRIPOS>UNITY_ATOM_ATTR
27 1
charge -1
@<TRIPOS>BOND
     1    24    25    1
     2    25    23    1
     3    23     1    1
     4     1     2   ar
     5     2     3   ar
     6     3     4   ar
     7     4     5   ar
     8     5     6   ar
     9     6     7   ar
    10     7     8   ar
    11     8     9   ar
    12     9    10    1
    13    10    11   ar
    14    11    12   ar
    15    12    13   ar
    16    13    20    1
    17    20    21    1
    18    21    22    1
    19    13    14   ar
    20    14    15   ar
    21    15    16   ar
    22    16    17   ar
    23    17    18   ar
    24    18    19   ar
    25    25    26    1
    26    26    27   ar
    27    26    28   ar
    28     9     1   ar
    29    19    10   ar
    30     8     3   ar
    31    22    20    1
    32    19    14   ar
@<TRIPOS>MOLECULE
*****
 28 32 0 0 0
SMALL
GASTEIGER

@<TRIPOS>ATOM
      1 C         141.0224  140.0101  167.0775 C.ar    1  UNL1        0.1755
      2 N         141.0900  139.5187  168.4932 N.ar    1  UNL1       -0.2192
      3 C         140.8437  140.6867  169.4015 C.ar    1  UNL1        0.1186
      4 C         140.7911  140.8023  170.8961 C.ar    1  UNL1        0.1194
      5 N         140.5188  142.1311  171.5365 N.ar    1  UNL1       -0.2406
      6 C         140.2990  143.3443  170.6822 C.ar    1  UNL1        0.1005
      7 C         140.3515  143.2288  169.1876 C.ar    1  UNL1        0.0398
      8 C         140.6239  141.9000  168.5472 C.ar    1  UNL1        0.0865
      9 N         140.7344  141.4818  167.1109 N.ar    1  UNL1       -0.2853
     10 C         140.5833  142.3780  165.9176 C.ar    1  UNL1        0.0658
     11 C         139.2271  142.6083  165.3195 C.ar    1  UNL1        0.0173
     12 C         139.0760  143.5045  164.1262 C.ar    1  UNL1       -0.0028
     13 C         140.2811  144.1703  163.5310 C.ar    1  UNL1       -0.0224
     14 C         141.6374  143.9400  164.1290 C.ar    1  UNL1       -0.0026
     15 C         142.8424  144.6059  163.5338 C.ar    1  UNL1       -0.0003
     16 C         144.1986  144.3756  164.1318 C.ar    1  UNL1       -0.0000
     17 C         144.3497  143.4794  165.3252 C.ar    1  UNL1        0.0000
     18 C         143.1446  142.8136  165.9204 C.ar    1  UNL1        0.0014
     19 C         141.7884  143.0439  165.3224 C.ar    1  UNL1        0.0159
     20 C         140.1300  145.0665  162.3376 C.3     1  UNL1        0.0224
     21 C         140.3466  145.3330  160.8775 C.3     1  UNL1        0.0047
     22 C         139.6518  146.3522  161.7309 C.3     1  UNL1        0.0047
     23 S         141.2100  139.1762  165.8449 S.3     1  UNL1       -0.0722
     24 C         142.3543  139.9422  163.6418 C.3     1  UNL1        0.0181
     25 C         142.4465  139.3374  165.0112 C.3     1  UNL1        0.0910
     26 C         143.7755  138.8936  165.5472 C.2     1  UNL1        0.0605
     27 O         145.0309  139.1959  164.7839 O.co2   1  UNL1       -0.5483
     28 O         143.8489  138.1474  166.8463 O.co2   1  UNL1       -0.5483
@<TRIPOS>UNITY_ATOM_ATTR
27 1
charge -1
@<TRIPOS>BOND
     1    24    25    1
     2    25    23    1
     3    23     1    1
     4     1     2   ar
     5     2     3   ar
     6     3     4   ar
     7     4     5   ar
     8     5     6   ar
     9     6     7   ar
    10     7     8   ar
    11     8     9   ar
    12     9    10    1
    13    10    11   ar
    14    11    12   ar
    15    12    13   ar
    16    13    20    1
    17    20    21    1
    18    21    22    1
    19    13    14   ar
    20    14    15   ar
    21    15    16   ar
    22    16    17   ar
    23    17    18   ar
    24    18    19   ar
    25    25    26    1
    26    26    27   ar
    27    26    28   ar
    28     9     1   ar
    29    19    10   ar
    30     8     3   ar
    31    22    20    1
    32    19    14   ar
@<TRIPOS>MOLECULE
*****
 28 32 0 0 0
SMALL
GASTEIGER

@<TRIPOS>ATOM
      1 C         138.0808  142.2978  162.8747 C.ar    1  UNL1        0.1755
      2 N         137.8322  142.1537  161.4025 N.ar    1  UNL1       -0.2192
      3 C         138.4297  140.8521  160.9567 C.ar    1  UNL1        0.1186
      4 C         138.4909  140.1828  159.6157 C.ar    1  UNL1        0.1194
      5 N         139.1701  138.8532  159.4714 N.ar    1  UNL1       -0.2406
      6 C         139.7881  138.1929  160.6681 C.ar    1  UNL1        0.1005
      7 C         139.7268  138.8622  162.0091 C.ar    1  UNL1        0.0398
      8 C         139.0476  140.1918  162.1534 C.ar    1  UNL1        0.0865
      9 N         138.8320  141.0853  163.3388 N.ar    1  UNL1       -0.2853
     10 C         139.2877  140.8139  164.7419 C.ar    1  UNL1        0.0658
     11 C         138.4416  139.9792  165.6570 C.ar    1  UNL1        0.0173
     12 C         138.8972  139.7078  167.0601 C.ar    1  UNL1       -0.0028
     13 C         140.1989  140.2711  167.5482 C.ar    1  UNL1       -0.0224
     14 C         141.0450  141.1059  166.6331 C.ar    1  UNL1       -0.0026
     15 C         142.3467  141.6692  167.1212 C.ar    1  UNL1       -0.0003
     16 C         143.1928  142.5039  166.2061 C.ar    1  UNL1       -0.0000
     17 C         142.7372  142.7753  164.8030 C.ar    1  UNL1        0.0000
     18 C         141.4355  142.2119  164.3149 C.ar    1  UNL1        0.0014
     19 C         140.5894  141.3773  165.2300 C.ar    1  UNL1        0.0159
     20 C         140.6545  139.9997  168.9513 C.3     1  UNL1        0.0224
     21 C         141.6767  139.4508  169.9019 C.3     1  UNL1        0.0047
     22 C         140.4214  140.0787  170.4310 C.3     1  UNL1        0.0047
     23 S         137.6533  143.4519  163.7322 S.3     1  UNL1       -0.0722
     24 C         138.8458  144.8797  165.5459 C.3     1  UNL1        0.0181
     25 C         138.6423  144.5163  164.1049 C.3     1  UNL1        0.0910
     26 C         139.4279  145.2173  163.0364 C.2     1  UNL1        0.0605
     27 O         138.7399  145.6987  161.7935 O.co2   1  UNL1       -0.5483
     28 O         140.9014  145.4370  163.2110 O.co2   1  UNL1       -0.5483
@<TRIPOS>UNITY_ATOM_ATTR
27 1
charge -1
@<TRIPOS>BOND
     1    24    25    1
     2    25    23    1
     3    23     1    1
     4     1     2   ar
     5     2     3   ar
     6     3     4   ar
     7     4     5   ar
     8     5     6   ar
     9     6     7   ar
    10     7     8   ar
    11     8     9   ar
    12     9    10    1
    13    10    11   ar
    14    11    12   ar
    15    12    13   ar
    16    13    20    1
    17    20    21    1
    18    21    22    1
    19    13    14   ar
    20    14    15   ar
    21    15    16   ar
    22    16    17   ar
    23    17    18   ar
    24    18    19   ar
    25    25    26    1
    26    26    27   ar
    27    26    28   ar
    28     9     1   ar
    29    19    10   ar
    30     8     3   ar
    31    22    20    1
    32    19    14   ar
@<TRIPOS>MOLECULE
*****
 28 32 0 0 0
SMALL
GASTEIGER

@<TRIPOS>ATOM
      1 C         138.7528  142.2517  162.2909 C.ar    1  UNL1        0.1755
      2 N         138.4839  141.7369  160.9079 N.ar    1  UNL1       -0.2192
      3 C         139.4449  140.6180  160.6348 C.ar    1  UNL1        0.1186
      4 C         139.6458  139.7372  159.4374 C.ar    1  UNL1        0.1194
      5 N         140.7094  138.6797  159.4542 N.ar    1  UNL1       -0.2406
      6 C         141.5722  138.5030  160.6685 C.ar    1  UNL1        0.1005
      7 C         141.3713  139.3838  161.8659 C.ar    1  UNL1        0.0398
      8 C         140.3076  140.4413  161.8491 C.ar    1  UNL1        0.0865
      9 N         139.8799  141.4509  162.8726 N.ar    1  UNL1       -0.2853
     10 C         140.4748  141.6286  164.2381 C.ar    1  UNL1        0.0658
     11 C         141.6609  142.5268  164.4283 C.ar    1  UNL1        0.0173
     12 C         142.2558  142.7045  165.7938 C.ar    1  UNL1       -0.0028
     13 C         141.6646  141.9840  166.9690 C.ar    1  UNL1       -0.0224
     14 C         140.4784  141.0857  166.7788 C.ar    1  UNL1       -0.0026
     15 C         139.8872  140.3652  167.9541 C.ar    1  UNL1       -0.0003
     16 C         138.7011  139.4669  167.7638 C.ar    1  UNL1       -0.0000
     17 C         138.1062  139.2892  166.3984 C.ar    1  UNL1        0.0000
     18 C         138.6974  140.0098  165.2231 C.ar    1  UNL1        0.0014
     19 C         139.8835  140.9080  165.4134 C.ar    1  UNL1        0.0159
     20 C         142.2595  142.1617  168.3345 C.3     1  UNL1        0.0224
     21 C         143.3202  141.8314  169.3423 C.3     1  UNL1        0.0047
     22 C         142.2292  142.7998  169.6916 C.3     1  UNL1        0.0047
     23 S         138.0226  143.3707  162.9725 S.3     1  UNL1       -0.0722
     24 C         138.7288  144.8306  165.0023 C.3     1  UNL1        0.0181
     25 C         138.7869  144.5332  163.5333 C.3     1  UNL1        0.0910
     26 C         139.6093  145.3985  162.6249 C.2     1  UNL1        0.0605
     27 O         138.9565  146.1216  161.4843 O.co2   1  UNL1       -0.5483
     28 O         141.0844  145.5405  162.8571 O.co2   1  UNL1       -0.5483
@<TRIPOS>UNITY_ATOM_ATTR
27 1
charge -1
@<TRIPOS>BOND
     1    24    25    1
     2    25    23    1
     3    23     1    1
     4     1     2   ar
     5     2     3   ar
     6     3     4   ar
     7     4     5   ar
     8     5     6   ar
     9     6     7   ar
    10     7     8   ar
    11     8     9   ar
    12     9    10    1
    13    10    11   ar
    14    11    12   ar
    15    12    13   ar
    16    13    20    1
    17    20    21    1
    18    21    22    1
    19    13    14   ar
    20    14    15   ar
    21    15    16   ar
    22    16    17   ar
    23    17    18   ar
    24    18    19   ar
    25    25    26    1
    26    26    27   ar
    27    26    28   ar
    28     9     1   ar
    29    19    10   ar
    30     8     3   ar
    31    22    20    1
    32    19    14   ar
@<TRIPOS>MOLECULE
*****
 28 32 0 0 0
SMALL
GASTEIGER

@<TRIPOS>ATOM
      1 C         142.3885  141.2943  162.4787 C.ar    1  UNL1        0.1755
      2 N         142.2095  140.5372  161.1962 N.ar    1  UNL1       -0.2192
      3 C         140.9710  139.7003  161.3211 C.ar    1  UNL1        0.1186
      4 C         140.3014  138.7507  160.3724 C.ar    1  UNL1        0.1194
      5 N         139.0454  138.0411  160.7834 N.ar    1  UNL1       -0.2406
      6 C         138.4590  138.2810  162.1431 C.ar    1  UNL1        0.1005
      7 C         139.1286  139.2305  163.0917 C.ar    1  UNL1        0.0398
      8 C         140.3846  139.9402  162.6808 C.ar    1  UNL1        0.0865
      9 N         141.2607  140.9253  163.3962 N.ar    1  UNL1       -0.2853
     10 C         141.0466  141.4495  164.7852 C.ar    1  UNL1        0.0658
     11 C         140.2350  142.6924  165.0010 C.ar    1  UNL1        0.0173
     12 C         140.0209  143.2165  166.3901 C.ar    1  UNL1       -0.0028
     13 C         140.6183  142.4978  167.5633 C.ar    1  UNL1       -0.0224
     14 C         141.4299  141.2549  167.3475 C.ar    1  UNL1       -0.0026
     15 C         142.0273  140.5362  168.5208 C.ar    1  UNL1       -0.0003
     16 C         142.8389  139.2933  168.3049 C.ar    1  UNL1       -0.0000
     17 C         143.0530  138.7691  166.9159 C.ar    1  UNL1        0.0000
     18 C         142.4556  139.4878  165.7427 C.ar    1  UNL1        0.0014
     19 C         141.6440  140.7307  165.9585 C.ar    1  UNL1        0.0159
     20 C         140.4042  143.0220  168.9523 C.3     1  UNL1        0.0224
     21 C         140.5485  144.1213  169.9625 C.3     1  UNL1        0.0047
     22 C         139.8890  142.8304  170.3480 C.3     1  UNL1        0.0047
     23 S         143.5003  142.2523  162.7891 S.3     1  UNL1       -0.0722
     24 C         143.7319  144.2716  164.4073 C.3     1  UNL1        0.0181
     25 C         143.1869  143.6758  163.1433 C.3     1  UNL1        0.0910
     26 C         142.3284  144.5034  162.2333 C.2     1  UNL1        0.0605
     27 O         141.2543  145.3793  162.8069 O.co2   1  UNL1       -0.5483
     28 O         142.5441  144.4551  160.7496 O.co2   1  UNL1       -0.5483
@<TRIPOS>UNITY_ATOM_ATTR
27 1
charge -1
@<TRIPOS>BOND
     1    24    25    1
     2    25    23    1
     3    23     1    1
     4     1     2   ar
     5     2     3   ar
     6     3     4   ar
     7     4     5   ar
     8     5     6   ar
     9     6     7   ar
    10     7     8   ar
    11     8     9   ar
    12     9    10    1
    13    10    11   ar
    14    11    12   ar
    15    12    13   ar
    16    13    20    1
    17    20    21    1
    18    21    22    1
    19    13    14   ar
    20    14    15   ar
    21    15    16   ar
    22    16    17   ar
    23    17    18   ar
    24    18    19   ar
    25    25    26    1
    26    26    27   ar
    27    26    28   ar
    28     9     1   ar
    29    19    10   ar
    30     8     3   ar
    31    22    20    1
    32    19    14   ar
@<TRIPOS>MOLECULE
*****
 28 32 0 0 0
SMALL
GASTEIGER

@<TRIPOS>ATOM
      1 C         141.2362  142.3427  162.4896 C.ar    1  UNL1        0.1755
      2 N         141.6387  141.9905  161.0882 N.ar    1  UNL1       -0.2192
      3 C         142.4764  140.7475  161.1451 C.ar    1  UNL1        0.1186
      4 C         143.1492  139.9406  160.0745 C.ar    1  UNL1        0.1194
      5 N         143.9371  138.7178  160.4404 N.ar    1  UNL1       -0.2406
      6 C         144.0523  138.3019  161.8770 C.ar    1  UNL1        0.1005
      7 C         143.3794  139.1087  162.9476 C.ar    1  UNL1        0.0398
      8 C         142.5915  140.3315  162.5817 C.ar    1  UNL1        0.0865
      9 N         141.8250  141.3174  163.4126 N.ar    1  UNL1       -0.2853
     10 C         141.6739  141.2839  164.9046 C.ar    1  UNL1        0.0658
     11 C         142.6664  141.9959  165.7751 C.ar    1  UNL1        0.0173
     12 C         142.5153  141.9624  167.2671 C.ar    1  UNL1       -0.0028
     13 C         141.3716  141.2169  167.8886 C.ar    1  UNL1       -0.0224
     14 C         140.3790  140.5049  167.0180 C.ar    1  UNL1       -0.0026
     15 C         139.2353  139.7594  167.6395 C.ar    1  UNL1       -0.0003
     16 C         138.2428  139.0474  166.7689 C.ar    1  UNL1       -0.0000
     17 C         138.3939  139.0809  165.2769 C.ar    1  UNL1        0.0000
     18 C         139.5376  139.8264  164.6555 C.ar    1  UNL1        0.0014
     19 C         140.5301  140.5384  165.5260 C.ar    1  UNL1        0.0159
     20 C         141.2205  141.1834  169.3806 C.3     1  UNL1        0.0224
     21 C         140.5927  141.7149  170.6349 C.3     1  UNL1        0.0047
     22 C         141.5865  140.5939  170.7104 C.3     1  UNL1        0.0047
     23 S         140.3928  143.5145  162.8964 S.3     1  UNL1       -0.0722
     24 C         138.5982  143.6384  164.7710 C.3     1  UNL1        0.0181
     25 C         138.9832  143.2987  163.3617 C.3     1  UNL1        0.0910
     26 C         137.9586  142.7431  162.4174 C.2     1  UNL1        0.0605
     27 O         137.9502  143.1750  160.9809 O.co2   1  UNL1       -0.5483
     28 O         136.9424  141.7557  162.9096 O.co2   1  UNL1       -0.5483
@<TRIPOS>UNITY_ATOM_ATTR
27 1
charge -1
@<TRIPOS>BOND
     1    24    25    1
     2    25    23    1
     3    23     1    1
     4     1     2   ar
     5     2     3   ar
     6     3     4   ar
     7     4     5   ar
     8     5     6   ar
     9     6     7   ar
    10     7     8   ar
    11     8     9   ar
    12     9    10    1
    13    10    11   ar
    14    11    12   ar
    15    12    13   ar
    16    13    20    1
    17    20    21    1
    18    21    22    1
    19    13    14   ar
    20    14    15   ar
    21    15    16   ar
    22    16    17   ar
    23    17    18   ar
    24    18    19   ar
    25    25    26    1
    26    26    27   ar
    27    26    28   ar
    28     9     1   ar
    29    19    10   ar
    30     8     3   ar
    31    22    20    1
    32    19    14   ar
@<TRIPOS>MOLECULE
*****
 28 32 0 0 0
SMALL
GASTEIGER

@<TRIPOS>ATOM
      1 C         142.1595  141.7264  162.5587 C.ar    1  UNL1        0.1755
      2 N         142.1870  142.4957  161.2712 N.ar    1  UNL1       -0.2192
      3 C         141.2280  143.6423  161.3958 C.ar    1  UNL1        0.1186
      4 C         140.8393  144.7338  160.4431 C.ar    1  UNL1        0.1194
      5 N         139.8305  145.7646  160.8549 N.ar    1  UNL1       -0.2406
      6 C         139.2103  145.7040  162.2193 C.ar    1  UNL1        0.1005
      7 C         139.5989  144.6126  163.1720 C.ar    1  UNL1        0.0398
      8 C         140.6078  143.5817  162.7603 C.ar    1  UNL1        0.0865
      9 N         141.1835  142.3976  163.4790 N.ar    1  UNL1       -0.2853
     10 C         140.8429  141.9614  164.8731 C.ar    1  UNL1        0.0658
     11 C         141.3305  142.7563  166.0479 C.ar    1  UNL1        0.0173
     12 C         140.9900  142.3201  167.4421 C.ar    1  UNL1       -0.0028
     13 C         140.1619  141.0888  167.6615 C.ar    1  UNL1       -0.0224
     14 C         139.6743  140.2937  166.4866 C.ar    1  UNL1       -0.0026
     15 C         138.8462  139.0625  166.7060 C.ar    1  UNL1       -0.0003
     16 C         138.3586  138.2675  165.5312 C.ar    1  UNL1       -0.0000
     17 C         138.6991  138.7037  164.1370 C.ar    1  UNL1        0.0000
     18 C         139.5272  139.9350  163.9177 C.ar    1  UNL1        0.0014
     19 C         140.0148  140.7300  165.0925 C.ar    1  UNL1        0.0159
     20 C         139.8213  140.6525  169.0556 C.3     1  UNL1        0.0224
     21 C         140.2504  140.1291  170.3943 C.3     1  UNL1        0.0047
     22 C         138.8025  140.4203  170.1317 C.3     1  UNL1        0.0047
     23 S         142.9663  140.5011  162.8710 S.3     1  UNL1       -0.0722
     24 C         144.0979  139.4358  164.9530 C.3     1  UNL1        0.0181
     25 C         144.0107  140.5447  163.9468 C.3     1  UNL1        0.0910
     26 C         144.9680  141.6976  164.0164 C.2     1  UNL1        0.0605
     27 O         146.1873  141.7137  163.1428 O.co2   1  UNL1       -0.5483
     28 O         144.7060  142.8342  164.9595 O.co2   1  UNL1       -0.5483
@<TRIPOS>UNITY_ATOM_ATTR
27 1
charge -1
@<TRIPOS>BOND
     1    24    25    1
     2    25    23    1
     3    23     1    1
     4     1     2   ar
     5     2     3   ar
     6     3     4   ar
     7     4     5   ar
     8     5     6   ar
     9     6     7   ar
    10     7     8   ar
    11     8     9   ar
    12     9    10    1
    13    10    11   ar
    14    11    12   ar
    15    12    13   ar
    16    13    20    1
    17    20    21    1
    18    21    22    1
    19    13    14   ar
    20    14    15   ar
    21    15    16   ar
    22    16    17   ar
    23    17    18   ar
    24    18    19   ar
    25    25    26    1
    26    26    27   ar
    27    26    28   ar
    28     9     1   ar
    29    19    10   ar
    30     8     3   ar
    31    22    20    1
    32    19    14   ar
@<TRIPOS>MOLECULE
*****
 28 32 0 0 0
SMALL
GASTEIGER

@<TRIPOS>ATOM
      1 C         143.3625  140.5790  161.8545 C.ar    1  UNL1        0.1755
      2 N         142.9044  140.3953  160.4381 N.ar    1  UNL1       -0.2192
      3 C         141.6179  139.6244  160.4633 C.ar    1  UNL1        0.1186
      4 C         140.7097  139.1511  159.3673 C.ar    1  UNL1        0.1194
      5 N         139.4646  138.3852  159.7034 N.ar    1  UNL1       -0.2406
      6 C         139.1276  138.0925  161.1355 C.ar    1  UNL1        0.1005
      7 C         140.0358  138.5658  162.2315 C.ar    1  UNL1        0.0398
      8 C         141.2809  139.3317  161.8954 C.ar    1  UNL1        0.0865
      9 N         142.3591  139.9217  162.7552 N.ar    1  UNL1       -0.2853
     10 C         142.4228  139.8644  164.2528 C.ar    1  UNL1        0.0658
     11 C         143.1954  138.7711  164.9293 C.ar    1  UNL1        0.0173
     12 C         143.2591  138.7138  166.4269 C.ar    1  UNL1       -0.0028
     13 C         142.5502  139.7499  167.2479 C.ar    1  UNL1       -0.0224
     14 C         141.7776  140.8432  166.5713 C.ar    1  UNL1       -0.0026
     15 C         141.0687  141.8793  167.3923 C.ar    1  UNL1       -0.0003
     16 C         140.2962  142.9726  166.7158 C.ar    1  UNL1       -0.0000
     17 C         140.2325  143.0299  165.2182 C.ar    1  UNL1        0.0000
     18 C         140.9413  141.9938  164.3972 C.ar    1  UNL1        0.0014
     19 C         141.7139  140.9005  165.0738 C.ar    1  UNL1        0.0159
     20 C         142.6140  139.6926  168.7454 C.3     1  UNL1        0.0224
     21 C         142.4695  138.9203  170.0232 C.3     1  UNL1        0.0047
     22 C         142.8687  140.3657  170.0615 C.3     1  UNL1        0.0047
     23 S         144.6057  141.2945  162.2933 S.3     1  UNL1       -0.0722
     24 C         144.8443  142.6874  164.4734 C.3     1  UNL1        0.0181
     25 C         144.5017  142.6051  163.0155 C.3     1  UNL1        0.0910
     26 C         144.0550  143.8335  162.2795 C.2     1  UNL1        0.0605
     27 O         143.5181  143.7178  160.8836 O.co2   1  UNL1       -0.5483
     28 O         144.1451  145.1775  162.9394 O.co2   1  UNL1       -0.5483
@<TRIPOS>UNITY_ATOM_ATTR
27 1
charge -1
@<TRIPOS>BOND
     1    24    25    1
     2    25    23    1
     3    23     1    1
     4     1     2   ar
     5     2     3   ar
     6     3     4   ar
     7     4     5   ar
     8     5     6   ar
     9     6     7   ar
    10     7     8   ar
    11     8     9   ar
    12     9    10    1
    13    10    11   ar
    14    11    12   ar
    15    12    13   ar
    16    13    20    1
    17    20    21    1
    18    21    22    1
    19    13    14   ar
    20    14    15   ar
    21    15    16   ar
    22    16    17   ar
    23    17    18   ar
    24    18    19   ar
    25    25    26    1
    26    26    27   ar
    27    26    28   ar
    28     9     1   ar
    29    19    10   ar
    30     8     3   ar
    31    22    20    1
    32    19    14   ar
@<TRIPOS>MOLECULE
*****
 28 32 0 0 0
SMALL
GASTEIGER

@<TRIPOS>ATOM
      1 C         142.8587  139.6259  166.2000 C.ar    1  UNL1        0.1755
      2 N         143.0984  138.9535  167.5192 N.ar    1  UNL1       -0.2192
      3 C         142.6115  139.8703  168.6020 C.ar    1  UNL1        0.1186
      4 C         142.5906  139.7370  170.0959 C.ar    1  UNL1        0.1194
      5 N         142.0290  140.8427  170.9397 N.ar    1  UNL1       -0.2406
      6 C         141.4884  142.0817  170.2896 C.ar    1  UNL1        0.1005
      7 C         141.5093  142.2150  168.7957 C.ar    1  UNL1        0.0398
      8 C         142.0709  141.1093  167.9519 C.ar    1  UNL1        0.0865
      9 N         142.2236  140.9583  166.4673 N.ar    1  UNL1       -0.2853
     10 C         141.8134  141.9631  165.4320 C.ar    1  UNL1        0.0658
     11 C         142.7844  143.0131  164.9797 C.ar    1  UNL1        0.0173
     12 C         142.3741  144.0180  163.9444 C.ar    1  UNL1       -0.0028
     13 C         140.9928  143.9728  163.3613 C.ar    1  UNL1       -0.0224
     14 C         140.0218  142.9228  163.8136 C.ar    1  UNL1       -0.0026
     15 C         138.6405  142.8776  163.2305 C.ar    1  UNL1       -0.0003
     16 C         137.6695  141.8276  163.6827 C.ar    1  UNL1       -0.0000
     17 C         138.0798  140.8228  164.7181 C.ar    1  UNL1        0.0000
     18 C         139.4610  140.8679  165.3012 C.ar    1  UNL1        0.0014
     19 C         140.4320  141.9179  164.8489 C.ar    1  UNL1        0.0159
     20 C         140.5826  144.9777  162.3260 C.3     1  UNL1        0.0224
     21 C         139.8647  146.2414  161.9549 C.3     1  UNL1        0.0047
     22 C         140.5899  145.4545  160.9038 C.3     1  UNL1        0.0047
     23 S         143.1950  139.0644  164.8503 S.3     1  UNL1       -0.0722
     24 C         141.0131  137.6540  164.8520 C.3     1  UNL1        0.0181
     25 C         142.1963  138.2155  164.1209 C.3     1  UNL1        0.0910
     26 C         142.3810  137.9281  162.6602 C.2     1  UNL1        0.0605
     27 O         141.2180  137.4646  161.8341 O.co2   1  UNL1       -0.5483
     28 O         143.7288  138.1041  162.0258 O.co2   1  UNL1       -0.5483
@<TRIPOS>UNITY_ATOM_ATTR
27 1
charge -1
@<TRIPOS>BOND
     1    24    25    1
     2    25    23    1
     3    23     1    1
     4     1     2   ar
     5     2     3   ar
     6     3     4   ar
     7     4     5   ar
     8     5     6   ar
     9     6     7   ar
    10     7     8   ar
    11     8     9   ar
    12     9    10    1
    13    10    11   ar
    14    11    12   ar
    15    12    13   ar
    16    13    20    1
    17    20    21    1
    18    21    22    1
    19    13    14   ar
    20    14    15   ar
    21    15    16   ar
    22    16    17   ar
    23    17    18   ar
    24    18    19   ar
    25    25    26    1
    26    26    27   ar
    27    26    28   ar
    28     9     1   ar
    29    19    10   ar
    30     8     3   ar
    31    22    20    1
    32    19    14   ar
