@<TRIPOS>MOLECULE
*****
 21 23 0 0 0
SMALL
GASTEIGER

@<TRIPOS>ATOM
      1 C         138.6991  139.7163  166.2761 C.ar    1  UNL1        0.0232
      2 C         138.5772  140.6253  165.0891 C.ar    1  UNL1        0.0781
      3 N         139.3004  141.9007  165.4058 N.ar    1  UNL1       -0.3051
      4 C         139.8693  141.7800  166.7885 C.ar    1  UNL1        0.0638
      5 C         140.6778  142.7249  167.6272 C.ar    1  UNL1        0.0184
      6 C         141.1145  142.3198  169.0038 C.ar    1  UNL1        0.0129
      7 C         140.7429  140.9698  169.5417 C.ar    1  UNL1        0.0578
      8 CL        141.1797  140.5647  170.9184 Cl      1  UNL1       -0.0822
      9 C         139.9345  140.0249  168.7030 C.ar    1  UNL1        0.0126
     10 C         139.4977  140.4299  167.3264 C.ar    1  UNL1        0.0167
     11 C         139.4317  143.0883  164.4990 C.ar    1  UNL1        0.0642
     12 C         140.7609  143.7645  164.3364 C.ar    1  UNL1        0.0198
     13 C         140.8922  144.9521  163.4296 C.ar    1  UNL1        0.0311
     14 C         139.6944  145.4637  162.6855 C.ar    1  UNL1        0.1402
     15 F         139.8257  146.6513  161.7787 F       1  UNL1       -0.2042
     16 C         138.3654  144.7875  162.8481 C.ar    1  UNL1        0.0311
     17 C         138.2341  143.5999  163.7549 C.ar    1  UNL1        0.0198
     18 C         138.5974  137.2462  165.4771 C.3     1  UNL1        0.0367
     19 C         138.1235  138.3361  166.3924 C.3     1  UNL1        0.1343
     20 O         137.0741  138.0455  167.4240 O.3     1  UNL1       -0.3800
     21 H         136.8121  137.1134  167.3651 H       1  UNL1        0.2108
@<TRIPOS>BOND
     1    18    19    1
     2    19    20    1
     3    19     1    1
     4     1     2   ar
     5     2     3   ar
     6     3    11    1
     7    11    12   ar
     8    12    13   ar
     9    13    14   ar
    10    14    15    1
    11    14    16   ar
    12    16    17   ar
    13     3     4   ar
    14     4     5   ar
    15     5     6   ar
    16     6     7   ar
    17     7     8    1
    18     7     9   ar
    19     9    10   ar
    20    10     1   ar
    21    17    11   ar
    22    10     4   ar
    23    20    21    1
@<TRIPOS>MOLECULE
*****
 21 23 0 0 0
SMALL
GASTEIGER

@<TRIPOS>ATOM
      1 C         138.8356  139.4518  166.6067 C.ar    1  UNL1        0.0232
      2 C         139.6924  139.7876  167.7913 C.ar    1  UNL1        0.0781
      3 N         140.2367  141.1711  167.5923 N.ar    1  UNL1       -0.3051
      4 C         139.7163  141.6904  166.2848 C.ar    1  UNL1        0.0638
      5 C         139.9191  142.9935  165.5702 C.ar    1  UNL1        0.0184
      6 C         139.2559  143.2341  164.2465 C.ar    1  UNL1        0.0129
      7 C         138.3900  142.1715  163.6373 C.ar    1  UNL1        0.0578
      8 CL        137.7268  142.4121  162.3135 Cl      1  UNL1       -0.0822
      9 C         138.1872  140.8684  164.3519 C.ar    1  UNL1        0.0126
     10 C         138.8504  140.6278  165.6757 C.ar    1  UNL1        0.0167
     11 C         141.1424  141.9063  168.5353 C.ar    1  UNL1        0.0642
     12 C         140.6070  143.0403  169.3584 C.ar    1  UNL1        0.0198
     13 C         141.5127  143.7755  170.3014 C.ar    1  UNL1        0.0311
     14 C         142.9537  143.3768  170.4213 C.ar    1  UNL1        0.1402
     15 F         143.8594  144.1120  171.3643 F       1  UNL1       -0.2042
     16 C         143.4891  142.2428  169.5982 C.ar    1  UNL1        0.0311
     17 C         142.5834  141.5076  168.6552 C.ar    1  UNL1        0.0198
     18 C         138.4965  137.2460  165.2764 C.3     1  UNL1        0.0367
     19 C         138.0942  138.1658  166.3910 C.3     1  UNL1        0.1343
     20 O         136.9506  137.7996  167.2898 O.3     1  UNL1       -0.3800
     21 H         136.5847  136.9442  167.0152 H       1  UNL1        0.2108
@<TRIPOS>BOND
     1    18    19    1
     2    19    20    1
     3    19     1    1
     4     1     2   ar
     5     2     3   ar
     6     3    11    1
     7    11    12   ar
     8    12    13   ar
     9    13    14   ar
    10    14    15    1
    11    14    16   ar
    12    16    17   ar
    13     3     4   ar
    14     4     5   ar
    15     5     6   ar
    16     6     7   ar
    17     7     8    1
    18     7     9   ar
    19     9    10   ar
    20    10     1   ar
    21    17    11   ar
    22    10     4   ar
    23    20    21    1
@<TRIPOS>MOLECULE
*****
 21 23 0 0 0
SMALL
GASTEIGER

@<TRIPOS>ATOM
      1 C         143.1212  143.5660  163.9438 C.ar    1  UNL1        0.0232
      2 C         143.7186  142.8647  165.1275 C.ar    1  UNL1        0.0781
      3 N         142.5999  142.4693  166.0452 N.ar    1  UNL1       -0.3051
      4 C         141.3111  142.9263  165.4286 C.ar    1  UNL1        0.0638
      5 C         139.8858  142.8128  165.8820 C.ar    1  UNL1        0.0184
      6 C         138.7827  143.3771  165.0366 C.ar    1  UNL1        0.0129
      7 C         139.1049  144.0549  163.7379 C.ar    1  UNL1        0.0578
      8 CL        138.0017  144.6193  162.8925 Cl      1  UNL1       -0.0822
      9 C         140.5302  144.1684  163.2845 C.ar    1  UNL1        0.0126
     10 C         141.6332  143.6041  164.1298 C.ar    1  UNL1        0.0167
     11 C         142.7445  141.7443  167.3503 C.ar    1  UNL1        0.0642
     12 C         143.3032  142.4569  168.5463 C.ar    1  UNL1        0.0198
     13 C         143.4479  141.7318  169.8514 C.ar    1  UNL1        0.0311
     14 C         143.0339  140.2942  169.9606 C.ar    1  UNL1        0.1402
     15 F         143.1785  139.5692  171.2658 F       1  UNL1       -0.2042
     16 C         142.4752  139.5817  168.7647 C.ar    1  UNL1        0.0311
     17 C         142.3305  140.3068  167.4596 C.ar    1  UNL1        0.0198
     18 C         144.4443  143.2117  161.7360 C.3     1  UNL1        0.0367
     19 C         143.8787  144.1302  162.7785 C.3     1  UNL1        0.1343
     20 O         144.0706  145.6127  162.6555 O.3     1  UNL1       -0.3800
     21 H         144.5777  145.8075  161.8519 H       1  UNL1        0.2108
@<TRIPOS>BOND
     1    18    19    1
     2    19    20    1
     3    19     1    1
     4     1     2   ar
     5     2     3   ar
     6     3    11    1
     7    11    12   ar
     8    12    13   ar
     9    13    14   ar
    10    14    15    1
    11    14    16   ar
    12    16    17   ar
    13     3     4   ar
    14     4     5   ar
    15     5     6   ar
    16     6     7   ar
    17     7     8    1
    18     7     9   ar
    19     9    10   ar
    20    10     1   ar
    21    17    11   ar
    22    10     4   ar
    23    20    21    1
@<TRIPOS>MOLECULE
*****
 21 23 0 0 0
SMALL
GASTEIGER

@<TRIPOS>ATOM
      1 C         143.0932  143.1423  164.1214 C.ar    1  UNL1        0.0232
      2 C         142.8662  142.3168  165.3531 C.ar    1  UNL1        0.0781
      3 N         141.4526  142.5363  165.8041 N.ar    1  UNL1       -0.3051
      4 C         140.8058  143.4973  164.8511 C.ar    1  UNL1        0.0638
      5 C         139.4246  144.0797  164.7960 C.ar    1  UNL1        0.0184
      6 C         139.0574  145.0366  163.7008 C.ar    1  UNL1        0.0129
      7 C         140.0714  145.4112  162.6608 C.ar    1  UNL1        0.0578
      8 CL        139.7041  146.3682  161.5657 Cl      1  UNL1       -0.0822
      9 C         141.4526  144.8288  162.7160 C.ar    1  UNL1        0.0126
     10 C         141.8198  143.8718  163.8111 C.ar    1  UNL1        0.0167
     11 C         140.8001  141.9054  166.9984 C.ar    1  UNL1        0.0642
     12 C         140.8134  142.6127  168.3212 C.ar    1  UNL1        0.0198
     13 C         140.1610  141.9818  169.5156 C.ar    1  UNL1        0.0311
     14 C         139.4952  140.6438  169.3871 C.ar    1  UNL1        0.1402
     15 F         138.8428  140.0129  170.5814 F       1  UNL1       -0.2042
     16 C         139.4820  139.9366  168.0643 C.ar    1  UNL1        0.0311
     17 C         140.1344  140.5675  166.8700 C.ar    1  UNL1        0.0198
     18 C         145.3891  142.1293  163.4486 C.3     1  UNL1        0.0367
     19 C         144.3695  143.2239  163.3375 C.3     1  UNL1        0.1343
     20 O         144.6262  144.3999  162.4426 O.3     1  UNL1       -0.3800
     21 H         145.4896  144.2968  162.0129 H       1  UNL1        0.2108
@<TRIPOS>BOND
     1    18    19    1
     2    19    20    1
     3    19     1    1
     4     1     2   ar
     5     2     3   ar
     6     3    11    1
     7    11    12   ar
     8    12    13   ar
     9    13    14   ar
    10    14    15    1
    11    14    16   ar
    12    16    17   ar
    13     3     4   ar
    14     4     5   ar
    15     5     6   ar
    16     6     7   ar
    17     7     8    1
    18     7     9   ar
    19     9    10   ar
    20    10     1   ar
    21    17    11   ar
    22    10     4   ar
    23    20    21    1
@<TRIPOS>MOLECULE
*****
 21 23 0 0 0
SMALL
GASTEIGER

@<TRIPOS>ATOM
      1 C         140.5593  141.6409  169.0353 C.ar    1  UNL1        0.0232
      2 C         141.5451  142.4802  168.2779 C.ar    1  UNL1        0.0781
      3 N         141.4539  142.1071  166.8279 N.ar    1  UNL1       -0.3051
      4 C         140.4117  141.0372  166.6891 C.ar    1  UNL1        0.0638
      5 C         139.8948  140.2882  165.4968 C.ar    1  UNL1        0.0184
      6 C         138.8250  139.2510  165.6688 C.ar    1  UNL1        0.0129
      7 C         138.2720  138.9628  167.0330 C.ar    1  UNL1        0.0578
      8 CL        137.2021  137.9256  167.2049 Cl      1  UNL1       -0.0822
      9 C         138.7889  139.7119  168.2253 C.ar    1  UNL1        0.0126
     10 C         139.8588  140.7491  168.0534 C.ar    1  UNL1        0.0167
     11 C         142.2629  142.6998  165.7124 C.ar    1  UNL1        0.0642
     12 C         143.7413  142.4547  165.6458 C.ar    1  UNL1        0.0198
     13 C         144.5503  143.0475  164.5303 C.ar    1  UNL1        0.0311
     14 C         143.8809  143.8852  163.4815 C.ar    1  UNL1        0.1402
     15 F         144.6899  144.4779  162.3660 F       1  UNL1       -0.2042
     16 C         142.4026  144.1302  163.5481 C.ar    1  UNL1        0.0311
     17 C         141.5936  143.5375  164.6635 C.ar    1  UNL1        0.0198
     18 C         140.6972  140.5155  171.3730 C.3     1  UNL1        0.0367
     19 C         140.3165  141.6855  170.5148 C.3     1  UNL1        0.1343
     20 O         139.6930  142.8999  171.1363 O.3     1  UNL1       -0.3800
     21 H         139.6072  142.7656  172.0931 H       1  UNL1        0.2108
@<TRIPOS>BOND
     1    18    19    1
     2    19    20    1
     3    19     1    1
     4     1     2   ar
     5     2     3   ar
     6     3    11    1
     7    11    12   ar
     8    12    13   ar
     9    13    14   ar
    10    14    15    1
    11    14    16   ar
    12    16    17   ar
    13     3     4   ar
    14     4     5   ar
    15     5     6   ar
    16     6     7   ar
    17     7     8    1
    18     7     9   ar
    19     9    10   ar
    20    10     1   ar
    21    17    11   ar
    22    10     4   ar
    23    20    21    1
@<TRIPOS>MOLECULE
*****
 21 23 0 0 0
SMALL
GASTEIGER

@<TRIPOS>ATOM
      1 C         138.9140  141.5402  164.0385 C.ar    1  UNL1        0.0232
      2 C         139.3447  141.3243  165.4591 C.ar    1  UNL1        0.0781
      3 N         140.3445  142.3870  165.8069 N.ar    1  UNL1       -0.3051
      4 C         140.5317  143.2598  164.6013 C.ar    1  UNL1        0.0638
      5 C         141.3929  144.4634  164.3575 C.ar    1  UNL1        0.0184
      6 C         141.3701  145.1436  163.0209 C.ar    1  UNL1        0.0129
      7 C         140.4860  144.6202  161.9280 C.ar    1  UNL1        0.0578
      8 CL        140.4632  145.3005  160.5912 Cl      1  UNL1       -0.0822
      9 C         139.6247  143.4166  162.1717 C.ar    1  UNL1        0.0126
     10 C         139.6476  142.7364  163.5084 C.ar    1  UNL1        0.0167
     11 C         141.0357  142.5487  167.1282 C.ar    1  UNL1        0.0642
     12 C         142.4745  142.1508  167.2757 C.ar    1  UNL1        0.0198
     13 C         143.1658  142.3125  168.5970 C.ar    1  UNL1        0.0311
     14 C         142.4183  142.8721  169.7710 C.ar    1  UNL1        0.1402
     15 F         143.1096  143.0338  171.0924 F       1  UNL1       -0.2042
     16 C         140.9796  143.2700  169.6236 C.ar    1  UNL1        0.0311
     17 C         140.2883  143.1083  168.3022 C.ar    1  UNL1        0.0198
     18 C         138.2955  139.3247  162.8306 C.3     1  UNL1        0.0367
     19 C         137.9236  140.7063  163.2811 C.3     1  UNL1        0.1343
     20 O         136.5613  141.2539  162.9741 O.3     1  UNL1       -0.3800
     21 H         136.0500  140.5921  162.4827 H       1  UNL1        0.2108
@<TRIPOS>BOND
     1    18    19    1
     2    19    20    1
     3    19     1    1
     4     1     2   ar
     5     2     3   ar
     6     3    11    1
     7    11    12   ar
     8    12    13   ar
     9    13    14   ar
    10    14    15    1
    11    14    16   ar
    12    16    17   ar
    13     3     4   ar
    14     4     5   ar
    15     5     6   ar
    16     6     7   ar
    17     7     8    1
    18     7     9   ar
    19     9    10   ar
    20    10     1   ar
    21    17    11   ar
    22    10     4   ar
    23    20    21    1
@<TRIPOS>MOLECULE
*****
 21 23 0 0 0
SMALL
GASTEIGER

@<TRIPOS>ATOM
      1 C         144.0062  141.3951  164.1193 C.ar    1  UNL1        0.0232
      2 C         143.5415  141.5909  165.5320 C.ar    1  UNL1        0.0781
      3 N         142.5933  140.4779  165.8665 N.ar    1  UNL1       -0.3051
      4 C         142.4720  139.5941  164.6606 C.ar    1  UNL1        0.0638
      5 C         141.6791  138.3464  164.4062 C.ar    1  UNL1        0.0184
      6 C         141.7596  137.6656  163.0721 C.ar    1  UNL1        0.0129
      7 C         142.6329  138.2325  161.9923 C.ar    1  UNL1        0.0578
      8 CL        142.7133  137.5517  160.6580 Cl      1  UNL1       -0.0822
      9 C         143.4257  139.4802  162.2466 C.ar    1  UNL1        0.0126
     10 C         143.3452  140.1610  163.5807 C.ar    1  UNL1        0.0167
     11 C         141.8899  140.2828  167.1769 C.ar    1  UNL1        0.0642
     12 C         140.4108  140.5130  167.2758 C.ar    1  UNL1        0.0198
     13 C         139.7074  140.3179  168.5862 C.ar    1  UNL1        0.0311
     14 C         140.4829  139.8926  169.7976 C.ar    1  UNL1        0.1402
     15 F         139.7794  139.6975  171.1080 F       1  UNL1       -0.2042
     16 C         141.9618  139.6624  169.6988 C.ar    1  UNL1        0.0311
     17 C         142.6652  139.8575  168.3884 C.ar    1  UNL1        0.0198
     18 C         144.4811  143.5595  162.7628 C.3     1  UNL1        0.0367
     19 C         144.9638  142.2783  163.3757 C.3     1  UNL1        0.1343
     20 O         146.4041  141.8804  163.2450 O.3     1  UNL1       -0.3800
     21 H         146.8817  142.5565  162.7393 H       1  UNL1        0.2108
@<TRIPOS>BOND
     1    18    19    1
     2    19    20    1
     3    19     1    1
     4     1     2   ar
     5     2     3   ar
     6     3    11    1
     7    11    12   ar
     8    12    13   ar
     9    13    14   ar
    10    14    15    1
    11    14    16   ar
    12    16    17   ar
    13     3     4   ar
    14     4     5   ar
    15     5     6   ar
    16     6     7   ar
    17     7     8    1
    18     7     9   ar
    19     9    10   ar
    20    10     1   ar
    21    17    11   ar
    22    10     4   ar
    23    20    21    1
@<TRIPOS>MOLECULE
*****
 21 23 0 0 0
SMALL
GASTEIGER

@<TRIPOS>ATOM
      1 C         138.8677  139.8135  163.6510 C.ar    1  UNL1        0.0232
      2 C         138.5243  140.4181  164.9801 C.ar    1  UNL1        0.0781
      3 N         139.7650  140.4198  165.8230 N.ar    1  UNL1       -0.3051
      4 C         140.8753  139.8164  165.0149 C.ar    1  UNL1        0.0638
      5 C         142.3196  139.5597  165.3279 C.ar    1  UNL1        0.0184
      6 C         143.2094  138.9282  164.2986 C.ar    1  UNL1        0.0129
      7 C         142.6548  138.5535  162.9562 C.ar    1  UNL1        0.0578
      8 CL        143.5446  137.9220  161.9268 Cl      1  UNL1       -0.0822
      9 C         141.2105  138.8101  162.6431 C.ar    1  UNL1        0.0126
     10 C         140.3207  139.4416  163.6725 C.ar    1  UNL1        0.0167
     11 C         139.8761  140.9347  167.2275 C.ar    1  UNL1        0.0642
     12 C         140.4664  142.2894  167.4852 C.ar    1  UNL1        0.0198
     13 C         140.5775  142.8043  168.8897 C.ar    1  UNL1        0.0311
     14 C         140.0982  141.9646  170.0365 C.ar    1  UNL1        0.1402
     15 F         140.2092  142.4794  171.4410 F       1  UNL1       -0.2042
     16 C         139.5078  140.6099  169.7787 C.ar    1  UNL1        0.0311
     17 C         139.3968  140.0951  168.3742 C.ar    1  UNL1        0.0198
     18 C         137.8604  138.2895  161.8035 C.3     1  UNL1        0.0367
     19 C         137.9239  139.6155  162.5021 C.3     1  UNL1        0.1343
     20 O         137.0435  140.7433  162.0517 O.3     1  UNL1       -0.3800
     21 H         136.4992  140.4499  161.3044 H       1  UNL1        0.2108
@<TRIPOS>BOND
     1    18    19    1
     2    19    20    1
     3    19     1    1
     4     1     2   ar
     5     2     3   ar
     6     3    11    1
     7    11    12   ar
     8    12    13   ar
     9    13    14   ar
    10    14    15    1
    11    14    16   ar
    12    16    17   ar
    13     3     4   ar
    14     4     5   ar
    15     5     6   ar
    16     6     7   ar
    17     7     8    1
    18     7     9   ar
    19     9    10   ar
    20    10     1   ar
    21    17    11   ar
    22    10     4   ar
    23    20    21    1
@<TRIPOS>MOLECULE
*****
 21 23 0 0 0
SMALL
GASTEIGER

@<TRIPOS>ATOM
      1 C         142.5708  142.8925  164.2580 C.ar    1  UNL1        0.0232
      2 C         142.1821  141.5907  164.8936 C.ar    1  UNL1        0.0781
      3 N         140.7016  141.4172  164.7268 N.ar    1  UNL1       -0.3051
      4 C         140.1752  142.6119  163.9881 C.ar    1  UNL1        0.0638
      5 C         138.7932  142.9872  163.5419 C.ar    1  UNL1        0.0184
      6 C         138.5664  144.2744  162.8059 C.ar    1  UNL1        0.0129
      7 C         139.7217  145.1862  162.5161 C.ar    1  UNL1        0.0578
      8 CL        139.4949  146.4734  161.7800 Cl      1  UNL1       -0.0822
      9 C         141.1037  144.8109  162.9623 C.ar    1  UNL1        0.0126
     10 C         141.3304  143.5237  163.6983 C.ar    1  UNL1        0.0167
     11 C         139.8898  140.2534  165.2133 C.ar    1  UNL1        0.0642
     12 C         139.2413  140.3041  166.5650 C.ar    1  UNL1        0.0198
     13 C         138.4296  139.1403  167.0515 C.ar    1  UNL1        0.0311
     14 C         138.2664  137.9258  166.1864 C.ar    1  UNL1        0.1402
     15 F         137.4547  136.7620  166.6730 F       1  UNL1       -0.2042
     16 C         138.9149  137.8752  164.8348 C.ar    1  UNL1        0.0311
     17 C         139.7266  139.0390  164.3483 C.ar    1  UNL1        0.0198
     18 C         144.7029  143.7657  165.4588 C.3     1  UNL1        0.0367
     19 C         143.9565  143.4631  164.1933 C.3     1  UNL1        0.1343
     20 O         144.5959  143.7312  162.8632 O.3     1  UNL1       -0.3800
     21 H         145.4842  144.0964  162.9993 H       1  UNL1        0.2108
@<TRIPOS>BOND
     1    18    19    1
     2    19    20    1
     3    19     1    1
     4     1     2   ar
     5     2     3   ar
     6     3    11    1
     7    11    12   ar
     8    12    13   ar
     9    13    14   ar
    10    14    15    1
    11    14    16   ar
    12    16    17   ar
    13     3     4   ar
    14     4     5   ar
    15     5     6   ar
    16     6     7   ar
    17     7     8    1
    18     7     9   ar
    19     9    10   ar
    20    10     1   ar
    21    17    11   ar
    22    10     4   ar
    23    20    21    1
