@<TRIPOS>MOLECULE
*****
 36 40 0 0 0
SMALL
GASTEIGER

@<TRIPOS>ATOM
      1 C         139.8450  139.6577  162.9365 C.ar    1  UNL1        0.0878
      2 C         138.7181  138.8660  163.5308 C.ar    1  UNL1        0.1543
      3 F         137.8191  138.0580  162.6426 F       1  UNL1       -0.2028
      4 C         138.4902  138.8823  165.0133 C.ar    1  UNL1        0.0356
      5 C         139.3892  139.6903  165.9014 C.ar    1  UNL1        0.0580
      6 C         139.1613  139.7066  167.3840 C.ar    1  UNL1        0.1996
      7 O         138.0344  138.9148  167.9783 O.2     1  UNL1       -0.2864
      8 C         140.0603  140.5146  168.2722 C.ar    1  UNL1        0.0701
      9 C         141.1873  141.3063  167.6778 C.ar    1  UNL1        0.0801
     10 N         141.4152  141.2900  166.1954 N.ar    1  UNL1       -0.3270
     11 C         140.5161  140.4820  165.3072 C.ar    1  UNL1        0.0750
     12 C         140.7440  140.4657  163.8247 C.ar    1  UNL1        0.0890
     13 CL        141.8710  141.2575  163.2303 Cl      1  UNL1       -0.0794
     14 C         140.6277  138.8957  159.2119 C.3     1  UNL1        0.0929
     15 C         140.2196  140.3370  159.1334 C.3     1  UNL1        0.0427
     16 C         139.8768  140.7979  160.5190 C.3     1  UNL1        0.0927
     17 N         140.0729  139.6415  161.4540 N.pl3   1  UNL1       -0.3033
     18 C         140.5370  138.4658  160.6461 C.3     1  UNL1        0.1104
     19 C         142.5066  137.9018  157.7180 C.2     1  UNL1        0.2246
     20 O         143.5371  138.6287  158.5304 O.2     1  UNL1       -0.2750
     21 N         141.0520  138.0354  158.0588 N.am    1  UNL1       -0.3042
     22 H         140.3757  137.5583  157.5255 H       1  UNL1        0.1494
     23 C         142.9309  137.0415  156.5648 C.3     1  UNL1        0.1133
     24 C         142.1448  135.8122  156.2172 C.3     1  UNL1        0.1608
     25 C         145.3003  131.9589  157.9706 C.3     1  UNL1        0.0776
     26 C         144.1416  132.6834  157.3523 C.ar    1  UNL1        0.1838
     27 N         142.9221  132.0475  156.7536 N.ar    1  UNL1       -0.1123
     28 N         142.0257  133.1421  156.2555 N.ar    1  UNL1       -0.0454
     29 N         142.6911  134.4546  156.5464 N.ar    1  UNL1       -0.1508
     30 N         143.9988  134.1710  157.2243 N.ar    1  UNL1       -0.1342
     31 C         139.8324  140.5308  169.7546 C.2     1  UNL1        0.0774
     32 O         140.3244  139.3948  170.6016 O.co2   1  UNL1       -0.5444
     33 O         139.1126  141.6832  170.3902 O.co2   1  UNL1       -0.5444
     34 C         142.5421  142.0817  165.6011 C.3     1  UNL1        0.0857
     35 C         143.0542  143.3469  164.9790 C.3     1  UNL1        0.0245
     36 C         143.9818  142.1879  165.1938 C.3     1  UNL1        0.0245
@<TRIPOS>UNITY_ATOM_ATTR
32 1
charge -1
@<TRIPOS>BOND
     1    25    26    1
     2    26    27   ar
     3    27    28   ar
     4    28    29   ar
     5    29    24    1
     6    24    23    1
     7    23    19    1
     8    19    20    2
     9    19    21   am
    10    21    14    1
    11    14    15    1
    12    15    16    1
    13    16    17    1
    14    17     1    1
    15     1     2   ar
    16     2     3    1
    17     2     4   ar
    18     4     5   ar
    19     5     6   ar
    20     6     7    2
    21     6     8   ar
    22     8    31    1
    23    31    32   ar
    24    31    33   ar
    25     8     9   ar
    26     9    10   ar
    27    10    34    1
    28    34    35    1
    29    35    36    1
    30    10    11   ar
    31    11    12   ar
    32    12    13    1
    33    17    18    1
    34    29    30   ar
    35    30    26   ar
    36    18    14    1
    37    12     1   ar
    38    11     5   ar
    39    36    34    1
    40    21    22    1
@<TRIPOS>MOLECULE
*****
 36 40 0 0 0
SMALL
GASTEIGER

@<TRIPOS>ATOM
      1 C         139.2169  139.8936  163.2573 C.ar    1  UNL1        0.0878
      2 C         138.7869  138.8092  164.2001 C.ar    1  UNL1        0.1543
      3 F         138.2119  137.5324  163.6624 F       1  UNL1       -0.2028
      4 C         138.9320  139.0015  165.6806 C.ar    1  UNL1        0.0356
      5 C         139.5071  140.2783  166.2183 C.ar    1  UNL1        0.0580
      6 C         139.6522  140.4706  167.6988 C.ar    1  UNL1        0.1996
      7 O         139.2222  139.3861  168.6417 O.2     1  UNL1       -0.2864
      8 C         140.2272  141.7474  168.2365 C.ar    1  UNL1        0.0701
      9 C         140.6572  142.8319  167.2936 C.ar    1  UNL1        0.0801
     10 N         140.5121  142.6396  165.8131 N.ar    1  UNL1       -0.3270
     11 C         139.9370  141.3628  165.2754 C.ar    1  UNL1        0.0750
     12 C         139.7919  141.1705  163.7949 C.ar    1  UNL1        0.0890
     13 CL        140.2219  142.2550  162.8520 Cl      1  UNL1       -0.0794
     14 C         138.2889  139.9049  159.4884 C.3     1  UNL1        0.0929
     15 C         139.4079  138.9061  159.5084 C.3     1  UNL1        0.0427
     16 C         139.8917  138.7804  160.9227 C.3     1  UNL1        0.0927
     17 N         139.0718  139.7014  161.7767 N.pl3   1  UNL1       -0.3033
     18 C         138.0812  140.3964  160.8902 C.3     1  UNL1        0.1104
     19 C         137.8021  141.6610  157.6366 C.2     1  UNL1        0.2246
     20 O         138.8654  142.5541  158.2039 O.2     1  UNL1       -0.2750
     21 N         137.5138  140.3364  158.2788 N.am    1  UNL1       -0.3042
     22 H         136.8159  139.7503  157.9065 H       1  UNL1        0.1494
     23 C         137.0270  142.0925  156.4270 C.3     1  UNL1        0.1133
     24 C         136.2781  141.0778  155.6148 C.3     1  UNL1        0.1608
     25 C         132.1447  138.7455  157.9288 C.3     1  UNL1        0.0776
     26 C         132.9730  139.6360  157.0508 C.ar    1  UNL1        0.1838
     27 N         132.4483  140.6419  156.0696 N.ar    1  UNL1       -0.1123
     28 N         133.6225  141.3044  155.4123 N.ar    1  UNL1       -0.0454
     29 N         134.8730  140.7080  155.9872 N.ar    1  UNL1       -0.1508
     30 N         134.4715  139.6768  156.9998 N.ar    1  UNL1       -0.1342
     31 C         140.3724  141.9397  169.7170 C.2     1  UNL1        0.0774
     32 O         141.7377  142.0017  170.3350 O.co2   1  UNL1       -0.5444
     33 O         139.1521  142.0700  170.5796 O.co2   1  UNL1       -0.5444
     34 C         140.9420  143.7241  164.8703 C.3     1  UNL1        0.0857
     35 C         142.0215  144.4161  164.0919 C.3     1  UNL1        0.0245
     36 C         140.6074  144.9104  164.0156 C.3     1  UNL1        0.0245
@<TRIPOS>UNITY_ATOM_ATTR
32 1
charge -1
@<TRIPOS>BOND
     1    25    26    1
     2    26    27   ar
     3    27    28   ar
     4    28    29   ar
     5    29    24    1
     6    24    23    1
     7    23    19    1
     8    19    20    2
     9    19    21   am
    10    21    14    1
    11    14    15    1
    12    15    16    1
    13    16    17    1
    14    17     1    1
    15     1     2   ar
    16     2     3    1
    17     2     4   ar
    18     4     5   ar
    19     5     6   ar
    20     6     7    2
    21     6     8   ar
    22     8    31    1
    23    31    32   ar
    24    31    33   ar
    25     8     9   ar
    26     9    10   ar
    27    10    34    1
    28    34    35    1
    29    35    36    1
    30    10    11   ar
    31    11    12   ar
    32    12    13    1
    33    17    18    1
    34    29    30   ar
    35    30    26   ar
    36    18    14    1
    37    12     1   ar
    38    11     5   ar
    39    36    34    1
    40    21    22    1
@<TRIPOS>MOLECULE
*****
 36 40 0 0 0
SMALL
GASTEIGER

@<TRIPOS>ATOM
      1 C         141.9705  142.4876  163.8685 C.ar    1  UNL1        0.0878
      2 C         143.0593  143.2814  164.5275 C.ar    1  UNL1        0.1543
      3 F         143.8424  144.2842  163.7330 F       1  UNL1       -0.2028
      4 C         143.3651  143.0724  165.9811 C.ar    1  UNL1        0.0356
      5 C         142.5821  142.0696  166.7756 C.ar    1  UNL1        0.0580
      6 C         142.8879  141.8607  168.2292 C.ar    1  UNL1        0.1996
      7 O         143.9767  142.6545  168.8882 O.2     1  UNL1       -0.2864
      8 C         142.1048  140.8579  169.0237 C.ar    1  UNL1        0.0701
      9 C         141.0160  140.0641  168.3646 C.ar    1  UNL1        0.0801
     10 N         140.7102  140.2731  166.9111 N.ar    1  UNL1       -0.3270
     11 C         141.4933  141.2758  166.1166 C.ar    1  UNL1        0.0750
     12 C         141.1875  141.4848  164.6631 C.ar    1  UNL1        0.0890
     13 CL        140.0986  140.6910  164.0040 Cl      1  UNL1       -0.0794
     14 C         140.7622  143.6058  160.3535 C.3     1  UNL1        0.0929
     15 C         141.6260  142.4306  160.0028 C.3     1  UNL1        0.0427
     16 C         142.1837  141.8687  161.2769 C.3     1  UNL1        0.0927
     17 N         141.6647  142.6966  162.4149 N.pl3   1  UNL1       -0.3033
     18 C         140.7862  143.7701  161.8442 C.3     1  UNL1        0.1104
     19 C         140.7464  145.4239  158.4977 C.2     1  UNL1        0.2246
     20 O         142.2408  145.5225  158.5815 O.2     1  UNL1       -0.2750
     21 N         140.0071  144.4655  159.3837 N.am    1  UNL1       -0.3042
     22 H         139.0262  144.4008  159.3287 H       1  UNL1        0.1494
     23 C         139.9913  146.2837  157.5279 C.3     1  UNL1        0.1133
     24 C         139.6476  145.7551  156.1668 C.3     1  UNL1        0.1608
     25 C         136.7164  141.3898  156.6486 C.3     1  UNL1        0.0776
     26 C         137.1935  142.7487  156.2295 C.ar    1  UNL1        0.1838
     27 N         136.4817  143.6845  155.2980 N.ar    1  UNL1       -0.1123
     28 N         137.3144  144.9246  155.1612 N.ar    1  UNL1       -0.0454
     29 N         138.5408  144.7553  156.0081 N.ar    1  UNL1       -0.1508
     30 N         138.4660  143.4105  156.6683 N.ar    1  UNL1       -0.1342
     31 C         142.4106  140.6489  170.4772 C.2     1  UNL1        0.0774
     32 O         141.6786  141.4417  171.5192 O.co2   1  UNL1       -0.5444
     33 O         143.4484  139.6471  170.8889 O.co2   1  UNL1       -0.5444
     34 C         139.6214  139.4793  166.2521 C.3     1  UNL1        0.0857
     35 C         138.1741  139.3020  165.9001 C.3     1  UNL1        0.0245
     36 C         139.1827  138.2816  165.4627 C.3     1  UNL1        0.0245
@<TRIPOS>UNITY_ATOM_ATTR
32 1
charge -1
@<TRIPOS>BOND
     1    25    26    1
     2    26    27   ar
     3    27    28   ar
     4    28    29   ar
     5    29    24    1
     6    24    23    1
     7    23    19    1
     8    19    20    2
     9    19    21   am
    10    21    14    1
    11    14    15    1
    12    15    16    1
    13    16    17    1
    14    17     1    1
    15     1     2   ar
    16     2     3    1
    17     2     4   ar
    18     4     5   ar
    19     5     6   ar
    20     6     7    2
    21     6     8   ar
    22     8    31    1
    23    31    32   ar
    24    31    33   ar
    25     8     9   ar
    26     9    10   ar
    27    10    34    1
    28    34    35    1
    29    35    36    1
    30    10    11   ar
    31    11    12   ar
    32    12    13    1
    33    17    18    1
    34    29    30   ar
    35    30    26   ar
    36    18    14    1
    37    12     1   ar
    38    11     5   ar
    39    36    34    1
    40    21    22    1
@<TRIPOS>MOLECULE
*****
 36 40 0 0 0
SMALL
GASTEIGER

@<TRIPOS>ATOM
      1 C         142.8270  140.9221  164.6476 C.ar    1  UNL1        0.0878
      2 C         143.7668  141.8217  165.3941 C.ar    1  UNL1        0.1543
      3 F         145.0429  142.2747  164.7487 F       1  UNL1       -0.2028
      4 C         143.4306  142.2685  166.7860 C.ar    1  UNL1        0.0356
      5 C         142.1545  141.8155  167.4313 C.ar    1  UNL1        0.0580
      6 C         141.8183  142.2623  168.8233 C.ar    1  UNL1        0.1996
      7 O         142.7581  143.1619  169.5698 O.2     1  UNL1       -0.2864
      8 C         140.5422  141.8094  169.4686 C.ar    1  UNL1        0.0701
      9 C         139.6023  140.9097  168.7220 C.ar    1  UNL1        0.0801
     10 N         139.9386  140.4630  167.3301 N.ar    1  UNL1       -0.3270
     11 C         141.2146  140.9159  166.6848 C.ar    1  UNL1        0.0750
     12 C         141.5509  140.4692  165.2929 C.ar    1  UNL1        0.0890
     13 CL        140.6110  139.5695  164.5463 Cl      1  UNL1       -0.0794
     14 C         143.2772  140.3552  160.8342 C.3     1  UNL1        0.0929
     15 C         144.0838  139.2207  161.3932 C.3     1  UNL1        0.0427
     16 C         144.0133  139.2950  162.8897 C.3     1  UNL1        0.0927
     17 N         143.1632  140.4754  163.2556 N.pl3   1  UNL1       -0.3033
     18 C         142.7083  141.1306  161.9853 C.3     1  UNL1        0.1104
     19 C         143.9155  141.7067  158.7091 C.2     1  UNL1        0.2246
     20 O         144.9581  142.4473  159.4932 O.2     1  UNL1       -0.2750
     21 N         143.0751  140.6606  159.3796 N.am    1  UNL1       -0.3042
     22 H         142.3909  140.1746  158.8650 H       1  UNL1        0.1494
     23 C         143.7134  142.0121  157.2545 C.3     1  UNL1        0.1133
     24 C         144.4815  141.2513  156.2146 C.3     1  UNL1        0.1608
     25 C         142.4135  136.3987  156.4495 C.3     1  UNL1        0.0776
     26 C         143.3598  137.5356  156.2010 C.ar    1  UNL1        0.1838
     27 N         144.7345  137.4255  155.6110 N.ar    1  UNL1       -0.1123
     28 N         145.3220  138.8041  155.5443 N.ar    1  UNL1       -0.0454
     29 N         144.3104  139.7660  156.0930 N.ar    1  UNL1       -0.1508
     30 N         143.0977  138.9820  156.4989 N.ar    1  UNL1       -0.1342
     31 C         140.2059  142.2561  170.8605 C.2     1  UNL1        0.0774
     32 O         139.3059  143.4372  171.0722 O.co2   1  UNL1       -0.5444
     33 O         140.7697  141.5217  172.0407 O.co2   1  UNL1       -0.5444
     34 C         138.9987  139.5634  166.5836 C.3     1  UNL1        0.0857
     35 C         138.2911  138.2475  166.4501 C.3     1  UNL1        0.0245
     36 C         138.0785  139.3210  165.4242 C.3     1  UNL1        0.0245
@<TRIPOS>UNITY_ATOM_ATTR
32 1
charge -1
@<TRIPOS>BOND
     1    25    26    1
     2    26    27   ar
     3    27    28   ar
     4    28    29   ar
     5    29    24    1
     6    24    23    1
     7    23    19    1
     8    19    20    2
     9    19    21   am
    10    21    14    1
    11    14    15    1
    12    15    16    1
    13    16    17    1
    14    17     1    1
    15     1     2   ar
    16     2     3    1
    17     2     4   ar
    18     4     5   ar
    19     5     6   ar
    20     6     7    2
    21     6     8   ar
    22     8    31    1
    23    31    32   ar
    24    31    33   ar
    25     8     9   ar
    26     9    10   ar
    27    10    34    1
    28    34    35    1
    29    35    36    1
    30    10    11   ar
    31    11    12   ar
    32    12    13    1
    33    17    18    1
    34    29    30   ar
    35    30    26   ar
    36    18    14    1
    37    12     1   ar
    38    11     5   ar
    39    36    34    1
    40    21    22    1
@<TRIPOS>MOLECULE
*****
 36 40 0 0 0
SMALL
GASTEIGER

@<TRIPOS>ATOM
      1 C         142.8681  141.3270  164.5878 C.ar    1  UNL1        0.0878
      2 C         143.7929  142.1856  165.3987 C.ar    1  UNL1        0.1543
      3 F         145.0374  142.7445  164.7750 F       1  UNL1       -0.2028
      4 C         143.4732  142.4853  166.8332 C.ar    1  UNL1        0.0356
      5 C         142.2287  141.9265  167.4568 C.ar    1  UNL1        0.0580
      6 C         141.9090  142.2263  168.8914 C.ar    1  UNL1        0.1996
      7 O         142.8338  143.0848  169.7023 O.2     1  UNL1       -0.2864
      8 C         140.6645  141.6674  169.5151 C.ar    1  UNL1        0.0701
      9 C         139.7397  140.8088  168.7041 C.ar    1  UNL1        0.0801
     10 N         140.0594  140.5090  167.2696 N.ar    1  UNL1       -0.3270
     11 C         141.3039  141.0679  166.6460 C.ar    1  UNL1        0.0750
     12 C         141.6236  140.7682  165.2114 C.ar    1  UNL1        0.0890
     13 CL        140.6989  139.9095  164.4005 Cl      1  UNL1       -0.0794
     14 C         143.2438  141.1367  160.7292 C.3     1  UNL1        0.0929
     15 C         144.1157  139.9953  161.1620 C.3     1  UNL1        0.0427
     16 C         144.0811  139.9277  162.6601 C.3     1  UNL1        0.0927
     17 N         143.1878  141.0272  163.1532 N.pl3   1  UNL1       -0.3033
     18 C         142.6704  141.7744  161.9599 C.3     1  UNL1        0.1104
     19 C         144.0300  142.3488  158.5699 C.2     1  UNL1        0.2246
     20 O         145.3239  142.7041  159.2405 O.2     1  UNL1       -0.2750
     21 N         142.9899  141.5650  159.3143 N.am    1  UNL1       -0.3042
     22 H         142.1407  141.3318  158.8742 H       1  UNL1        0.1494
     23 C         143.7761  142.7771  157.1549 C.3     1  UNL1        0.1133
     24 C         142.6751  143.7497  156.8518 C.3     1  UNL1        0.1608
     25 C         140.4162  145.5898  161.2553 C.3     1  UNL1        0.0776
     26 C         140.6175  144.9255  159.9256 C.ar    1  UNL1        0.1838
     27 N         139.5569  144.2494  159.1083 N.ar    1  UNL1       -0.1123
     28 N         140.1986  143.7266  157.8574 N.ar    1  UNL1       -0.0454
     29 N         141.6558  144.0797  157.9016 N.ar    1  UNL1       -0.1508
     30 N         141.9146  144.8206  159.1798 N.ar    1  UNL1       -0.1342
     31 C         140.3448  141.9671  170.9496 C.2     1  UNL1        0.0774
     32 O         139.4947  143.1533  171.2965 O.co2   1  UNL1       -0.5444
     33 O         140.8752  141.0807  172.0373 O.co2   1  UNL1       -0.5444
     34 C         139.1347  139.6504  166.4587 C.3     1  UNL1        0.0857
     35 C         138.0129  139.5219  165.4713 C.3     1  UNL1        0.0245
     36 C         138.6546  138.2919  166.0416 C.3     1  UNL1        0.0245
@<TRIPOS>UNITY_ATOM_ATTR
32 1
charge -1
@<TRIPOS>BOND
     1    25    26    1
     2    26    27   ar
     3    27    28   ar
     4    28    29   ar
     5    29    24    1
     6    24    23    1
     7    23    19    1
     8    19    20    2
     9    19    21   am
    10    21    14    1
    11    14    15    1
    12    15    16    1
    13    16    17    1
    14    17     1    1
    15     1     2   ar
    16     2     3    1
    17     2     4   ar
    18     4     5   ar
    19     5     6   ar
    20     6     7    2
    21     6     8   ar
    22     8    31    1
    23    31    32   ar
    24    31    33   ar
    25     8     9   ar
    26     9    10   ar
    27    10    34    1
    28    34    35    1
    29    35    36    1
    30    10    11   ar
    31    11    12   ar
    32    12    13    1
    33    17    18    1
    34    29    30   ar
    35    30    26   ar
    36    18    14    1
    37    12     1   ar
    38    11     5   ar
    39    36    34    1
    40    21    22    1
@<TRIPOS>MOLECULE
*****
 36 40 0 0 0
SMALL
GASTEIGER

@<TRIPOS>ATOM
      1 C         140.6790  139.5952  164.3021 C.ar    1  UNL1        0.0878
      2 C         141.3866  138.6840  165.2607 C.ar    1  UNL1        0.1543
      3 F         141.8046  137.3120  164.8216 F       1  UNL1       -0.2028
      4 C         141.6763  139.1449  166.6584 C.ar    1  UNL1        0.0356
      5 C         141.2583  140.5169  167.0975 C.ar    1  UNL1        0.0580
      6 C         141.5480  140.9777  168.4953 C.ar    1  UNL1        0.1996
      7 O         142.2557  140.0666  169.4539 O.2     1  UNL1       -0.2864
      8 C         141.1300  142.3498  168.9344 C.ar    1  UNL1        0.0701
      9 C         140.4224  143.2610  167.9757 C.ar    1  UNL1        0.0801
     10 N         140.1327  142.8001  166.5780 N.ar    1  UNL1       -0.3270
     11 C         140.5507  141.4281  166.1389 C.ar    1  UNL1        0.0750
     12 C         140.2610  140.9672  164.7412 C.ar    1  UNL1        0.0890
     13 CL        139.5533  141.8784  163.7825 Cl      1  UNL1       -0.0794
     14 C         140.5650  138.7684  160.5114 C.3     1  UNL1        0.0929
     15 C         139.3221  138.0820  160.9953 C.3     1  UNL1        0.0427
     16 C         139.2135  138.3081  162.4742 C.3     1  UNL1        0.0927
     17 N         140.3893  139.1343  162.9043 N.pl3   1  UNL1       -0.3033
     18 C         141.2245  139.4188  161.6912 C.3     1  UNL1        0.1104
     19 C         142.2825  138.0175  158.7125 C.2     1  UNL1        0.2246
     20 O         143.0078  137.2051  159.7442 O.2     1  UNL1       -0.2750
     21 N         141.0611  138.7991  159.0962 N.am    1  UNL1       -0.3042
     22 H         140.5851  139.3323  158.4191 H       1  UNL1        0.1494
     23 C         142.7787  138.0481  157.2973 C.3     1  UNL1        0.1133
     24 C         142.1552  137.1568  156.2644 C.3     1  UNL1        0.1608
     25 C         144.1963  132.4274  157.4249 C.3     1  UNL1        0.0776
     26 C         143.3208  133.5012  156.8501 C.ar    1  UNL1        0.1838
     27 N         142.1444  133.2887  155.9441 N.ar    1  UNL1       -0.1123
     28 N         141.5646  134.6322  155.6145 N.ar    1  UNL1       -0.0454
     29 N         142.3827  135.6750  156.3167 N.ar    1  UNL1       -0.1508
     30 N         143.4681  134.9760  157.0803 N.ar    1  UNL1       -0.1342
     31 C         141.4197  142.8106  170.3321 C.2     1  UNL1        0.0774
     32 O         140.4852  142.4515  171.4491 O.co2   1  UNL1       -0.5444
     33 O         142.6440  143.6307  170.6129 O.co2   1  UNL1       -0.5444
     34 C         139.4250  143.7113  165.6194 C.3     1  UNL1        0.0857
     35 C         139.4717  144.7838  164.5718 C.3     1  UNL1        0.0245
     36 C         138.1528  144.2170  165.0067 C.3     1  UNL1        0.0245
@<TRIPOS>UNITY_ATOM_ATTR
32 1
charge -1
@<TRIPOS>BOND
     1    25    26    1
     2    26    27   ar
     3    27    28   ar
     4    28    29   ar
     5    29    24    1
     6    24    23    1
     7    23    19    1
     8    19    20    2
     9    19    21   am
    10    21    14    1
    11    14    15    1
    12    15    16    1
    13    16    17    1
    14    17     1    1
    15     1     2   ar
    16     2     3    1
    17     2     4   ar
    18     4     5   ar
    19     5     6   ar
    20     6     7    2
    21     6     8   ar
    22     8    31    1
    23    31    32   ar
    24    31    33   ar
    25     8     9   ar
    26     9    10   ar
    27    10    34    1
    28    34    35    1
    29    35    36    1
    30    10    11   ar
    31    11    12   ar
    32    12    13    1
    33    17    18    1
    34    29    30   ar
    35    30    26   ar
    36    18    14    1
    37    12     1   ar
    38    11     5   ar
    39    36    34    1
    40    21    22    1
@<TRIPOS>MOLECULE
*****
 36 40 0 0 0
SMALL
GASTEIGER

@<TRIPOS>ATOM
      1 C         142.0431  140.3444  163.5754 C.ar    1  UNL1        0.0878
      2 C         142.9170  139.4783  164.4334 C.ar    1  UNL1        0.1543
      3 F         143.7658  138.4132  163.8048 F       1  UNL1       -0.2028
      4 C         142.9420  139.6772  165.9199 C.ar    1  UNL1        0.0356
      5 C         142.0932  140.7423  166.5485 C.ar    1  UNL1        0.0580
      6 C         142.1183  140.9412  168.0351 C.ar    1  UNL1        0.1996
      7 O         142.9922  140.0751  168.8930 O.2     1  UNL1       -0.2864
      8 C         141.2695  142.0063  168.6636 C.ar    1  UNL1        0.0701
      9 C         140.3957  142.8725  167.8056 C.ar    1  UNL1        0.0801
     10 N         140.3706  142.6736  166.3191 N.ar    1  UNL1       -0.3270
     11 C         141.2194  141.6085  165.6905 C.ar    1  UNL1        0.0750
     12 C         141.1943  141.4096  164.2040 C.ar    1  UNL1        0.0890
     13 CL        140.3204  142.2757  163.3460 Cl      1  UNL1       -0.0794
     14 C         141.4621  139.3023  159.8819 C.3     1  UNL1        0.0929
     15 C         142.4966  140.3765  159.7207 C.3     1  UNL1        0.0427
     16 C         142.8402  140.8976  161.0847 C.3     1  UNL1        0.0927
     17 N         142.0180  140.1455  162.0888 N.pl3   1  UNL1       -0.3033
     18 C         141.1663  139.1596  161.3455 C.3     1  UNL1        0.1104
     19 C         141.6991  137.7968  157.7778 C.2     1  UNL1        0.2246
     20 O         143.1929  137.8760  157.8894 O.2     1  UNL1       -0.2750
     21 N         140.8337  138.5100  158.7740 N.am    1  UNL1       -0.3042
     22 H         139.8533  138.4581  158.7008 H       1  UNL1        0.1494
     23 C         141.0707  137.0045  156.6699 C.3     1  UNL1        0.1133
     24 C         141.9261  136.1574  155.7750 C.3     1  UNL1        0.1608
     25 C         145.0517  132.5347  158.0080 C.3     1  UNL1        0.0776
     26 C         143.9005  133.1829  157.2977 C.ar    1  UNL1        0.1838
     27 N         142.6820  132.4834  156.7724 N.ar    1  UNL1       -0.1123
     28 N         141.7941  133.5125  156.1381 N.ar    1  UNL1       -0.0454
     29 N         142.4638  134.8481  156.2714 N.ar    1  UNL1       -0.1508
     30 N         143.7656  134.6443  156.9881 N.ar    1  UNL1       -0.1342
     31 C         141.2946  142.2053  170.1501 C.2     1  UNL1        0.0774
     32 O         140.4256  141.3611  171.0346 O.co2   1  UNL1       -0.5444
     33 O         142.1887  143.2484  170.7523 O.co2   1  UNL1       -0.5444
     34 C         139.4968  143.5398  165.4612 C.3     1  UNL1        0.0857
     35 C         138.2009  143.7690  164.7414 C.3     1  UNL1        0.0245
     36 C         139.2790  144.8108  164.6950 C.3     1  UNL1        0.0245
@<TRIPOS>UNITY_ATOM_ATTR
32 1
charge -1
@<TRIPOS>BOND
     1    25    26    1
     2    26    27   ar
     3    27    28   ar
     4    28    29   ar
     5    29    24    1
     6    24    23    1
     7    23    19    1
     8    19    20    2
     9    19    21   am
    10    21    14    1
    11    14    15    1
    12    15    16    1
    13    16    17    1
    14    17     1    1
    15     1     2   ar
    16     2     3    1
    17     2     4   ar
    18     4     5   ar
    19     5     6   ar
    20     6     7    2
    21     6     8   ar
    22     8    31    1
    23    31    32   ar
    24    31    33   ar
    25     8     9   ar
    26     9    10   ar
    27    10    34    1
    28    34    35    1
    29    35    36    1
    30    10    11   ar
    31    11    12   ar
    32    12    13    1
    33    17    18    1
    34    29    30   ar
    35    30    26   ar
    36    18    14    1
    37    12     1   ar
    38    11     5   ar
    39    36    34    1
    40    21    22    1
@<TRIPOS>MOLECULE
*****
 36 40 0 0 0
SMALL
GASTEIGER

@<TRIPOS>ATOM
      1 C         142.8653  141.5800  164.2588 C.ar    1  UNL1        0.0878
      2 C         143.8878  142.3296  165.0603 C.ar    1  UNL1        0.1543
      3 F         145.1145  142.8736  164.3901 F       1  UNL1       -0.2028
      4 C         143.6837  142.5352  166.5320 C.ar    1  UNL1        0.0356
      5 C         142.4569  141.9912  167.2023 C.ar    1  UNL1        0.0580
      6 C         142.2528  142.1968  168.6741 C.ar    1  UNL1        0.1996
      7 O         143.2754  142.9464  169.4755 O.2     1  UNL1       -0.2864
      8 C         141.0261  141.6528  169.3443 C.ar    1  UNL1        0.0701
      9 C         140.0035  140.9032  168.5427 C.ar    1  UNL1        0.0801
     10 N         140.2077  140.6976  167.0710 N.ar    1  UNL1       -0.3270
     11 C         141.4344  141.2416  166.4008 C.ar    1  UNL1        0.0750
     12 C         141.6385  141.0360  164.9291 C.ar    1  UNL1        0.0890
     13 CL        140.6160  140.2864  164.1275 Cl      1  UNL1       -0.0794
     14 C         143.4876  140.3244  160.6392 C.3     1  UNL1        0.0929
     15 C         143.2795  141.7914  160.4053 C.3     1  UNL1        0.0427
     16 C         143.0211  142.4403  161.7328 C.3     1  UNL1        0.0927
     17 N         143.0694  141.3744  162.7870 N.pl3   1  UNL1       -0.3033
     18 C         143.3577  140.0667  162.1111 C.3     1  UNL1        0.1104
     19 C         142.7112  138.9149  158.5994 C.2     1  UNL1        0.2246
     20 O         141.3598  139.5627  158.6661 O.2     1  UNL1       -0.2750
     21 N         143.7750  139.2958  159.5859 N.am    1  UNL1       -0.3042
     22 H         144.6619  138.8706  159.5422 H       1  UNL1        0.1494
     23 C         142.9986  137.8863  157.5462 C.3     1  UNL1        0.1133
     24 C         141.9477  136.8842  157.1699 C.3     1  UNL1        0.1608
     25 C         144.4794  132.3716  156.1179 C.3     1  UNL1        0.0776
     26 C         143.5074  133.5119  156.0476 C.ar    1  UNL1        0.1838
     27 N         142.3988  133.6651  155.0489 N.ar    1  UNL1       -0.1123
     28 N         141.6796  134.9470  155.3478 N.ar    1  UNL1       -0.0454
     29 N         142.3437  135.5861  156.5312 N.ar    1  UNL1       -0.1508
     30 N         143.4734  134.6991  156.9637 N.ar    1  UNL1       -0.1342
     31 C         140.8219  141.8584  170.8160 C.2     1  UNL1        0.0774
     32 O         141.6524  141.0923  171.8026 O.co2   1  UNL1       -0.5444
     33 O         139.7872  142.8301  171.3012 O.co2   1  UNL1       -0.5444
     34 C         139.1851  139.9480  166.2695 C.3     1  UNL1        0.0857
     35 C         138.5345  138.6542  165.8785 C.3     1  UNL1        0.0245
     36 C         138.0646  139.9433  165.2724 C.3     1  UNL1        0.0245
@<TRIPOS>UNITY_ATOM_ATTR
32 1
charge -1
@<TRIPOS>BOND
     1    25    26    1
     2    26    27   ar
     3    27    28   ar
     4    28    29   ar
     5    29    24    1
     6    24    23    1
     7    23    19    1
     8    19    20    2
     9    19    21   am
    10    21    14    1
    11    14    15    1
    12    15    16    1
    13    16    17    1
    14    17     1    1
    15     1     2   ar
    16     2     3    1
    17     2     4   ar
    18     4     5   ar
    19     5     6   ar
    20     6     7    2
    21     6     8   ar
    22     8    31    1
    23    31    32   ar
    24    31    33   ar
    25     8     9   ar
    26     9    10   ar
    27    10    34    1
    28    34    35    1
    29    35    36    1
    30    10    11   ar
    31    11    12   ar
    32    12    13    1
    33    17    18    1
    34    29    30   ar
    35    30    26   ar
    36    18    14    1
    37    12     1   ar
    38    11     5   ar
    39    36    34    1
    40    21    22    1
@<TRIPOS>MOLECULE
*****
 36 40 0 0 0
SMALL
GASTEIGER

@<TRIPOS>ATOM
      1 C         142.8192  141.2966  164.4781 C.ar    1  UNL1        0.0878
      2 C         143.7565  142.1445  165.2858 C.ar    1  UNL1        0.1543
      3 F         145.0002  142.6972  164.6551 F       1  UNL1       -0.2028
      4 C         143.4501  142.4399  166.7241 C.ar    1  UNL1        0.0356
      5 C         142.2064  141.8873  167.3548 C.ar    1  UNL1        0.0580
      6 C         141.9000  142.1827  168.7932 C.ar    1  UNL1        0.1996
      7 O         142.8373  143.0306  169.6008 O.2     1  UNL1       -0.2864
      8 C         140.6563  141.6300  169.4239 C.ar    1  UNL1        0.0701
      9 C         139.7189  140.7820  168.6161 C.ar    1  UNL1        0.0801
     10 N         140.0253  140.4867  167.1778 N.ar    1  UNL1       -0.3270
     11 C         141.2691  141.0393  166.5471 C.ar    1  UNL1        0.0750
     12 C         141.5755  140.7439  165.1088 C.ar    1  UNL1        0.0890
     13 CL        140.6382  139.8959  164.3011 Cl      1  UNL1       -0.0794
     14 C         143.1521  141.1124  160.6154 C.3     1  UNL1        0.0929
     15 C         144.0420  139.9809  161.0373 C.3     1  UNL1        0.0427
     16 C         144.0255  139.9122  162.5356 C.3     1  UNL1        0.0927
     17 N         143.1256  141.0012  163.0397 N.pl3   1  UNL1       -0.3033
     18 C         142.5858  141.7430  161.8530 C.3     1  UNL1        0.1104
     19 C         143.8941  142.3450  158.4519 C.2     1  UNL1        0.2246
     20 O         145.1864  142.7253  159.1119 O.2     1  UNL1       -0.2750
     21 N         142.8770  141.5385  159.2037 N.am    1  UNL1       -0.3042
     22 H         142.0288  141.2889  158.7706 H       1  UNL1        0.1494
     23 C         143.6190  142.7711  157.0403 C.3     1  UNL1        0.1133
     24 C         144.1213  141.9424  155.8953 C.3     1  UNL1        0.1608
     25 C         149.3733  141.6982  155.4095 C.3     1  UNL1        0.0776
     26 C         147.9313  142.0268  155.1595 C.ar    1  UNL1        0.1838
     27 N         147.3993  142.8565  154.0288 N.ar    1  UNL1       -0.1123
     28 N         145.9073  142.9259  154.1668 N.ar    1  UNL1       -0.0454
     29 N         145.5172  142.1391  155.3828 N.ar    1  UNL1       -0.1508
     30 N         146.7681  141.5834  155.9963 N.ar    1  UNL1       -0.1342
     31 C         140.3498  141.9254  170.8622 C.2     1  UNL1        0.0774
     32 O         139.5869  143.1641  171.2274 O.co2   1  UNL1       -0.5444
     33 O         140.8064  140.9820  171.9354 O.co2   1  UNL1       -0.5444
     34 C         139.0880  139.6387  166.3702 C.3     1  UNL1        0.0857
     35 C         138.5509  138.2883  165.9988 C.3     1  UNL1        0.0245
     36 C         138.0017  139.5202  165.3426 C.3     1  UNL1        0.0245
@<TRIPOS>UNITY_ATOM_ATTR
32 1
charge -1
@<TRIPOS>BOND
     1    25    26    1
     2    26    27   ar
     3    27    28   ar
     4    28    29   ar
     5    29    24    1
     6    24    23    1
     7    23    19    1
     8    19    20    2
     9    19    21   am
    10    21    14    1
    11    14    15    1
    12    15    16    1
    13    16    17    1
    14    17     1    1
    15     1     2   ar
    16     2     3    1
    17     2     4   ar
    18     4     5   ar
    19     5     6   ar
    20     6     7    2
    21     6     8   ar
    22     8    31    1
    23    31    32   ar
    24    31    33   ar
    25     8     9   ar
    26     9    10   ar
    27    10    34    1
    28    34    35    1
    29    35    36    1
    30    10    11   ar
    31    11    12   ar
    32    12    13    1
    33    17    18    1
    34    29    30   ar
    35    30    26   ar
    36    18    14    1
    37    12     1   ar
    38    11     5   ar
    39    36    34    1
    40    21    22    1
