@<TRIPOS>MOLECULE
*****
 30 32 0 0 0
SMALL
GASTEIGER

@<TRIPOS>ATOM
      1 N         142.6609  142.8732  163.5204 N.am    1  UNL1       -0.2588
      2 C         142.9903  144.0114  162.6006 C.2     1  UNL1        0.3219
      3 O         144.3229  144.6892  162.4788 O.2     1  UNL1       -0.2510
      4 N         141.7533  144.3528  161.8239 N.am    1  UNL1       -0.1885
      5 C         140.6593  143.4256  162.2637 C.3     1  UNL1        0.1388
      6 C         141.2201  142.5111  163.3122 C.3     1  UNL1        0.1208
      7 C         140.4718  141.4254  164.0269 C.ar    1  UNL1       -0.0028
      8 C         139.2043  141.7468  164.7621 C.ar    1  UNL1       -0.0030
      9 C         138.4560  140.6609  165.4769 C.ar    1  UNL1       -0.0048
     10 C         138.9750  139.2537  165.4565 C.ar    1  UNL1       -0.0258
     11 C         138.2266  138.1679  166.1712 C.3     1  UNL1        0.0307
     12 C         140.2423  138.9323  164.7214 C.ar    1  UNL1       -0.0260
     13 C         140.7613  137.5251  164.7010 C.3     1  UNL1        0.0307
     14 C         140.9907  140.0181  164.0066 C.ar    1  UNL1       -0.0072
     15 N         141.6316  145.4318  160.7892 N.3     1  UNL1       -0.1073
     16 H         142.5627  145.8307  160.6688 H       1  UNL1        0.1715
     17 S         141.1213  145.1018  159.4178 S.O2    1  UNL1        0.0573
     18 C         140.6110  144.7718  158.0464 C.3     1  UNL1        0.1974
     19 O         139.7995  145.7226  159.7603 O.2     1  UNL1       -0.1561
     20 O         142.4433  144.4809  159.0754 O.2     1  UNL1       -0.1561
     21 C         143.6061  142.2131  164.4799 C.3     1  UNL1        0.1000
     22 C         143.5496  142.5506  165.9403 C.3     1  UNL1        0.0479
     23 C         140.7115  140.3482  168.6505 C.ar    1  UNL1        0.1387
     24 C         141.8632  139.6220  168.0210 C.ar    1  UNL1        0.0366
     25 C         142.8092  140.3562  167.1176 C.ar    1  UNL1       -0.0011
     26 C         142.6035  141.8165  166.8437 C.ar    1  UNL1       -0.0203
     27 C         141.4519  142.5427  167.4732 C.ar    1  UNL1       -0.0011
     28 C         140.5059  141.8086  168.3766 C.ar    1  UNL1        0.0366
     29 C         138.5169  140.2885  170.0397 C.3     1  UNL1        0.2525
     30 O         139.7655  139.6141  169.5539 O.3     1  UNL1       -0.4714
@<TRIPOS>BOND
     1    29    30    1
     2    30    23    1
     3    23    24   ar
     4    24    25   ar
     5    25    26   ar
     6    26    22    1
     7    22    21    1
     8    21     1    1
     9     1     2   am
    10     2     3    2
    11     2     4   am
    12     4    15    1
    13    15    17    1
    14    17    18    1
    15    17    19    2
    16    17    20    2
    17     4     5    1
    18     5     6    1
    19     6     7    1
    20     7     8   ar
    21     8     9   ar
    22     9    10   ar
    23    10    11    1
    24    10    12   ar
    25    12    13    1
    26    12    14   ar
    27    26    27   ar
    28    27    28   ar
    29    28    23   ar
    30     6     1    1
    31    14     7   ar
    32    15    16    1
@<TRIPOS>MOLECULE
*****
 30 32 0 0 0
SMALL
GASTEIGER

@<TRIPOS>ATOM
      1 N         139.0986  139.8173  165.4775 N.am    1  UNL1       -0.2588
      2 C         138.5230  139.3459  166.7800 C.2     1  UNL1        0.3219
      3 O         137.3769  138.3922  166.9437 O.2     1  UNL1       -0.2510
      4 N         139.2947  139.9957  167.8900 N.am    1  UNL1       -0.1885
      5 C         140.3473  140.8687  167.2736 C.3     1  UNL1        0.1388
      6 C         140.2261  140.7585  165.7825 C.3     1  UNL1        0.1208
      7 C         141.0821  141.4652  164.7738 C.ar    1  UNL1       -0.0028
      8 C         141.8804  140.6731  163.7810 C.ar    1  UNL1       -0.0030
      9 C         142.7364  141.3799  162.7722 C.ar    1  UNL1       -0.0048
     10 C         142.7941  142.8787  162.7561 C.ar    1  UNL1       -0.0258
     11 C         143.6501  143.5855  161.7473 C.3     1  UNL1        0.0307
     12 C         141.9959  143.6708  163.7487 C.ar    1  UNL1       -0.0260
     13 C         142.0536  145.1696  163.7326 C.3     1  UNL1        0.0307
     14 C         141.1399  142.9640  164.7576 C.ar    1  UNL1       -0.0072
     15 N         139.0558  139.8059  169.3586 N.3     1  UNL1       -0.1073
     16 H         139.0582  138.8004  169.5298 H       1  UNL1        0.1715
     17 S         139.9943  140.4172  170.3563 S.O2    1  UNL1        0.0573
     18 C         140.9329  141.0285  171.3540 C.3     1  UNL1        0.1974
     19 O         140.9186  139.2456  170.2047 O.2     1  UNL1       -0.1561
     20 O         139.0700  141.5889  170.5079 O.2     1  UNL1       -0.1561
     21 C         138.6292  139.4176  164.1100 C.3     1  UNL1        0.1000
     22 C         137.6820  140.3016  163.3542 C.3     1  UNL1        0.0479
     23 C         139.1422  144.1742  161.5876 C.ar    1  UNL1        0.1387
     24 C         139.5633  142.8678  160.9825 C.ar    1  UNL1        0.0366
     25 C         139.0765  141.5770  161.5714 C.ar    1  UNL1       -0.0011
     26 C         138.1687  141.5924  162.7653 C.ar    1  UNL1       -0.0203
     27 C         137.7477  142.8987  163.3704 C.ar    1  UNL1       -0.0011
     28 C         138.2344  144.1896  162.7816 C.ar    1  UNL1        0.0366
     29 C         140.7673  145.4617  160.0220 C.3     1  UNL1        0.2525
     30 O         139.6290  145.4650  160.9988 O.3     1  UNL1       -0.4714
@<TRIPOS>BOND
     1    29    30    1
     2    30    23    1
     3    23    24   ar
     4    24    25   ar
     5    25    26   ar
     6    26    22    1
     7    22    21    1
     8    21     1    1
     9     1     2   am
    10     2     3    2
    11     2     4   am
    12     4    15    1
    13    15    17    1
    14    17    18    1
    15    17    19    2
    16    17    20    2
    17     4     5    1
    18     5     6    1
    19     6     7    1
    20     7     8   ar
    21     8     9   ar
    22     9    10   ar
    23    10    11    1
    24    10    12   ar
    25    12    13    1
    26    12    14   ar
    27    26    27   ar
    28    27    28   ar
    29    28    23   ar
    30     6     1    1
    31    14     7   ar
    32    15    16    1
@<TRIPOS>MOLECULE
*****
 30 32 0 0 0
SMALL
GASTEIGER

@<TRIPOS>ATOM
      1 N         139.1888  139.3578  165.5079 N.am    1  UNL1       -0.2588
      2 C         138.5053  139.1415  166.8255 C.2     1  UNL1        0.3219
      3 O         137.2529  138.3469  167.0491 O.2     1  UNL1       -0.2510
      4 N         139.2942  139.8592  167.8803 N.am    1  UNL1       -0.1885
      5 C         140.4652  140.5191  167.2147 C.3     1  UNL1        0.1388
      6 C         140.4002  140.2093  165.7484 C.3     1  UNL1        0.1208
      7 C         141.3751  140.6700  164.7058 C.ar    1  UNL1       -0.0028
      8 C         140.8909  141.4456  163.5166 C.ar    1  UNL1       -0.0030
      9 C         141.8659  141.9063  162.4740 C.ar    1  UNL1       -0.0048
     10 C         143.3252  141.5914  162.6205 C.ar    1  UNL1       -0.0258
     11 C         144.3002  142.0521  161.5778 C.3     1  UNL1        0.0307
     12 C         143.8095  140.8159  163.8095 C.ar    1  UNL1       -0.0260
     13 C         145.2687  140.5010  163.9560 C.3     1  UNL1        0.0307
     14 C         142.8344  140.3552  164.8522 C.ar    1  UNL1       -0.0072
     15 N         138.9691  139.9084  169.3438 N.3     1  UNL1       -0.1073
     16 H         138.8075  138.9464  169.6420 H       1  UNL1        0.1715
     17 S         139.9502  140.5024  170.3105 S.O2    1  UNL1        0.0573
     18 C         140.9314  141.0964  171.2772 C.3     1  UNL1        0.1974
     19 O         140.7663  139.2450  170.2549 O.2     1  UNL1       -0.1561
     20 O         139.1341  141.7598  170.3661 O.2     1  UNL1       -0.1561
     21 C         138.7399  138.8176  164.1826 C.3     1  UNL1        0.1000
     22 C         139.4904  137.6894  163.5394 C.3     1  UNL1        0.0479
     23 C         142.6312  138.5567  160.4357 C.ar    1  UNL1        0.1387
     24 C         143.0200  137.9275  161.7406 C.ar    1  UNL1        0.0366
     25 C         141.9730  137.6384  162.7752 C.ar    1  UNL1       -0.0011
     26 C         140.5374  137.9785  162.5048 C.ar    1  UNL1       -0.0203
     27 C         140.1486  138.6077  161.1999 C.ar    1  UNL1       -0.0011
     28 C         141.1956  138.8968  160.1653 C.ar    1  UNL1        0.0366
     29 C         143.5165  140.0163  158.4771 C.3     1  UNL1        0.2525
     30 O         143.6782  138.8458  159.4011 O.3     1  UNL1       -0.4714
@<TRIPOS>BOND
     1    29    30    1
     2    30    23    1
     3    23    24   ar
     4    24    25   ar
     5    25    26   ar
     6    26    22    1
     7    22    21    1
     8    21     1    1
     9     1     2   am
    10     2     3    2
    11     2     4   am
    12     4    15    1
    13    15    17    1
    14    17    18    1
    15    17    19    2
    16    17    20    2
    17     4     5    1
    18     5     6    1
    19     6     7    1
    20     7     8   ar
    21     8     9   ar
    22     9    10   ar
    23    10    11    1
    24    10    12   ar
    25    12    13    1
    26    12    14   ar
    27    26    27   ar
    28    27    28   ar
    29    28    23   ar
    30     6     1    1
    31    14     7   ar
    32    15    16    1
@<TRIPOS>MOLECULE
*****
 30 32 0 0 0
SMALL
GASTEIGER

@<TRIPOS>ATOM
      1 N         143.1337  143.1872  164.0626 N.am    1  UNL1       -0.2588
      2 C         143.2944  144.0781  162.8665 C.2     1  UNL1        0.3219
      3 O         144.5921  144.4530  162.2143 O.2     1  UNL1       -0.2510
      4 N         141.9295  144.5284  162.4372 N.am    1  UNL1       -0.1885
      5 C         140.9252  143.9158  163.3679 C.3     1  UNL1        0.1388
      6 C         141.6695  143.0869  164.3725 C.3     1  UNL1        0.1208
      7 C         141.0571  142.2965  165.4905 C.ar    1  UNL1       -0.0028
      8 C         141.4919  142.5380  166.9057 C.ar    1  UNL1       -0.0030
      9 C         140.8794  141.7476  168.0238 C.ar    1  UNL1       -0.0048
     10 C         139.8322  140.7155  167.7267 C.ar    1  UNL1       -0.0258
     11 C         139.2197  139.9251  168.8448 C.3     1  UNL1        0.0307
     12 C         139.3974  140.4739  166.3116 C.ar    1  UNL1       -0.0260
     13 C         138.3501  139.4419  166.0146 C.3     1  UNL1        0.0307
     14 C         140.0098  141.2644  165.1936 C.ar    1  UNL1       -0.0072
     15 N         141.6226  145.4325  161.2804 N.3     1  UNL1       -0.1073
     16 H         142.5073  145.8480  160.9887 H       1  UNL1        0.1715
     17 S         140.9769  144.8776  160.0455 S.O2    1  UNL1        0.0573
     18 C         140.3312  144.3226  158.8105 C.3     1  UNL1        0.1974
     19 O         142.3074  144.3645  159.5803 O.2     1  UNL1       -0.1561
     20 O         139.6463  145.3907  160.5107 O.2     1  UNL1       -0.1561
     21 C         144.2426  142.5147  164.8164 C.3     1  UNL1        0.1000
     22 C         144.6303  141.1051  164.4809 C.3     1  UNL1        0.0479
     23 C         141.4603  138.0891  163.4299 C.ar    1  UNL1        0.1387
     24 C         141.9975  138.1560  164.8288 C.ar    1  UNL1        0.0366
     25 C         143.0541  139.1614  165.1791 C.ar    1  UNL1       -0.0011
     26 C         143.5736  140.0998  164.1306 C.ar    1  UNL1       -0.0203
     27 C         143.0364  140.0328  162.7317 C.ar    1  UNL1       -0.0011
     28 C         141.9797  139.0275  162.3814 C.ar    1  UNL1        0.0366
     29 C         138.9824  137.5244  162.8903 C.3     1  UNL1        0.2525
     30 O         140.4036  137.0837  163.0796 O.3     1  UNL1       -0.4714
@<TRIPOS>BOND
     1    29    30    1
     2    30    23    1
     3    23    24   ar
     4    24    25   ar
     5    25    26   ar
     6    26    22    1
     7    22    21    1
     8    21     1    1
     9     1     2   am
    10     2     3    2
    11     2     4   am
    12     4    15    1
    13    15    17    1
    14    17    18    1
    15    17    19    2
    16    17    20    2
    17     4     5    1
    18     5     6    1
    19     6     7    1
    20     7     8   ar
    21     8     9   ar
    22     9    10   ar
    23    10    11    1
    24    10    12   ar
    25    12    13    1
    26    12    14   ar
    27    26    27   ar
    28    27    28   ar
    29    28    23   ar
    30     6     1    1
    31    14     7   ar
    32    15    16    1
@<TRIPOS>MOLECULE
*****
 30 32 0 0 0
SMALL
GASTEIGER

@<TRIPOS>ATOM
      1 N         140.2916  144.2442  164.7442 N.am    1  UNL1       -0.2588
      2 C         141.1413  144.7777  163.6291 C.2     1  UNL1        0.3219
      3 O         140.7462  145.8461  162.6531 O.2     1  UNL1       -0.2510
      4 N         142.4556  144.0554  163.6614 N.am    1  UNL1       -0.1885
      5 C         142.4181  143.0754  164.7963 C.3     1  UNL1        0.1388
      6 C         141.0807  143.1920  165.4656 C.3     1  UNL1        0.1208
      7 C         140.6144  142.3963  166.6485 C.ar    1  UNL1       -0.0028
      8 C         140.2462  140.9516  166.4826 C.ar    1  UNL1       -0.0030
      9 C         139.7798  140.1559  167.6655 C.ar    1  UNL1       -0.0048
     10 C         139.6816  140.8048  169.0143 C.ar    1  UNL1       -0.0258
     11 C         139.2152  140.0091  170.1972 C.3     1  UNL1        0.0307
     12 C         140.0497  142.2494  169.1803 C.ar    1  UNL1       -0.0260
     13 C         139.9515  142.8983  170.5290 C.3     1  UNL1        0.0307
     14 C         140.5161  143.0451  167.9973 C.ar    1  UNL1       -0.0072
     15 N         143.6053  144.2745  162.7234 N.3     1  UNL1       -0.1073
     16 H         144.4392  144.3843  163.3004 H       1  UNL1        0.1715
     17 S         143.9313  143.2445  161.6829 S.O2    1  UNL1        0.0573
     18 C         144.2572  142.2144  160.6424 C.3     1  UNL1        0.1974
     19 O         144.9308  142.6221  162.6122 O.2     1  UNL1       -0.1561
     20 O         142.9317  143.8669  160.7536 O.2     1  UNL1       -0.1561
     21 C         138.8976  144.6852  165.0790 C.3     1  UNL1        0.1000
     22 C         137.7405  144.2054  164.2539 C.3     1  UNL1        0.0479
     23 C         138.1341  140.4608  161.7894 C.ar    1  UNL1        0.1387
     24 C         137.8652  140.3648  163.2620 C.ar    1  UNL1        0.0366
     25 C         137.7340  141.6129  164.0834 C.ar    1  UNL1       -0.0011
     26 C         137.8717  142.9572  163.4324 C.ar    1  UNL1       -0.0203
     27 C         138.1406  143.0533  161.9598 C.ar    1  UNL1       -0.0011
     28 C         138.2718  141.8051  161.1384 C.ar    1  UNL1        0.0366
     29 C         139.2286  138.1401  161.3820 C.3     1  UNL1        0.2525
     30 O         138.2653  139.2127  160.9679 O.3     1  UNL1       -0.4714
@<TRIPOS>BOND
     1    29    30    1
     2    30    23    1
     3    23    24   ar
     4    24    25   ar
     5    25    26   ar
     6    26    22    1
     7    22    21    1
     8    21     1    1
     9     1     2   am
    10     2     3    2
    11     2     4   am
    12     4    15    1
    13    15    17    1
    14    17    18    1
    15    17    19    2
    16    17    20    2
    17     4     5    1
    18     5     6    1
    19     6     7    1
    20     7     8   ar
    21     8     9   ar
    22     9    10   ar
    23    10    11    1
    24    10    12   ar
    25    12    13    1
    26    12    14   ar
    27    26    27   ar
    28    27    28   ar
    29    28    23   ar
    30     6     1    1
    31    14     7   ar
    32    15    16    1
@<TRIPOS>MOLECULE
*****
 30 32 0 0 0
SMALL
GASTEIGER

@<TRIPOS>ATOM
      1 N         140.2757  144.6305  163.1297 N.am    1  UNL1       -0.2588
      2 C         140.2765  145.4801  161.8935 C.2     1  UNL1        0.3219
      3 O         139.3525  146.6276  161.6117 O.2     1  UNL1       -0.2510
      4 N         141.3636  144.9807  160.9885 N.am    1  UNL1       -0.1885
      5 C         142.0346  143.8225  161.6654 C.3     1  UNL1        0.1388
      6 C         141.3623  143.6060  162.9887 C.3     1  UNL1        0.1208
      7 C         141.7146  142.5504  163.9945 C.ar    1  UNL1       -0.0028
      8 C         141.6309  141.1002  163.6203 C.ar    1  UNL1       -0.0030
      9 C         141.9833  140.0446  164.6261 C.ar    1  UNL1       -0.0048
     10 C         142.4193  140.4392  166.0060 C.ar    1  UNL1       -0.0258
     11 C         142.7717  139.3837  167.0118 C.3     1  UNL1        0.0307
     12 C         142.5031  141.8894  166.3802 C.ar    1  UNL1       -0.0260
     13 C         142.9391  142.2840  167.7601 C.3     1  UNL1        0.0307
     14 C         142.1507  142.9449  165.3744 C.ar    1  UNL1       -0.0072
     15 N         141.7175  145.5411  159.6429 N.3     1  UNL1       -0.1073
     16 H         142.7142  145.7567  159.6666 H       1  UNL1        0.1715
     17 S         141.4798  144.7274  158.4055 S.O2    1  UNL1        0.0573
     18 C         141.2421  143.9137  157.1680 C.3     1  UNL1        0.1974
     19 O         140.0176  145.0553  158.4707 O.2     1  UNL1       -0.1561
     20 O         142.9422  144.3995  158.3402 O.2     1  UNL1       -0.1561
     21 C         139.3507  144.7793  164.3011 C.3     1  UNL1        0.1000
     22 C         138.0798  143.9848  164.3588 C.3     1  UNL1        0.0479
     23 C         137.9951  139.7598  162.8122 C.ar    1  UNL1        0.1387
     24 C         137.8010  140.9084  161.8672 C.ar    1  UNL1        0.0366
     25 C         137.8292  142.3167  162.3828 C.ar    1  UNL1       -0.0011
     26 C         138.0516  142.5764  163.8433 C.ar    1  UNL1       -0.0203
     27 C         138.2457  141.4278  164.7882 C.ar    1  UNL1       -0.0011
     28 C         138.2174  140.0195  164.2727 C.ar    1  UNL1        0.0366
     29 C         138.8757  137.9451  161.1746 C.3     1  UNL1        0.2525
     30 O         137.9669  138.3514  162.2966 O.3     1  UNL1       -0.4714
@<TRIPOS>BOND
     1    29    30    1
     2    30    23    1
     3    23    24   ar
     4    24    25   ar
     5    25    26   ar
     6    26    22    1
     7    22    21    1
     8    21     1    1
     9     1     2   am
    10     2     3    2
    11     2     4   am
    12     4    15    1
    13    15    17    1
    14    17    18    1
    15    17    19    2
    16    17    20    2
    17     4     5    1
    18     5     6    1
    19     6     7    1
    20     7     8   ar
    21     8     9   ar
    22     9    10   ar
    23    10    11    1
    24    10    12   ar
    25    12    13    1
    26    12    14   ar
    27    26    27   ar
    28    27    28   ar
    29    28    23   ar
    30     6     1    1
    31    14     7   ar
    32    15    16    1
@<TRIPOS>MOLECULE
*****
 30 32 0 0 0
SMALL
GASTEIGER

@<TRIPOS>ATOM
      1 N         143.6460  143.1180  164.2432 N.am    1  UNL1       -0.2588
      2 C         143.4873  144.0497  163.0784 C.2     1  UNL1        0.3219
      3 O         144.5663  144.4506  162.1167 O.2     1  UNL1       -0.2510
      4 N         142.0601  144.5100  163.0441 N.am    1  UNL1       -0.1885
      5 C         141.3367  143.8628  164.1878 C.3     1  UNL1        0.1388
      6 C         142.3168  143.0025  164.9289 C.3     1  UNL1        0.1208
      7 C         142.0200  142.1725  166.1424 C.ar    1  UNL1       -0.0028
      8 C         140.8689  141.2107  166.1301 C.ar    1  UNL1       -0.0030
      9 C         140.5721  140.3807  167.3438 C.ar    1  UNL1       -0.0048
     10 C         141.4263  140.5123  168.5697 C.ar    1  UNL1       -0.0258
     11 C         141.1295  139.6823  169.7834 C.3     1  UNL1        0.0307
     12 C         142.5774  141.4740  168.5821 C.ar    1  UNL1       -0.0260
     13 C         143.4316  141.6056  169.8080 C.3     1  UNL1        0.0307
     14 C         142.8742  142.3040  167.3684 C.ar    1  UNL1       -0.0072
     15 N         141.4613  145.4520  162.0422 N.3     1  UNL1       -0.1073
     16 H         142.2215  146.0392  161.6992 H       1  UNL1        0.1715
     17 S         140.7527  144.9123  160.8353 S.O2    1  UNL1        0.0573
     18 C         140.0441  144.3726  159.6285 C.3     1  UNL1        0.1974
     19 O         142.0550  144.8635  160.0926 O.2     1  UNL1       -0.1561
     20 O         139.4504  144.9612  161.5782 O.2     1  UNL1       -0.1561
     21 C         144.9116  142.4237  164.6508 C.3     1  UNL1        0.1000
     22 C         145.2519  141.0830  164.0706 C.3     1  UNL1        0.0479
     23 C         141.9834  138.1197  163.1841 C.ar    1  UNL1        0.1387
     24 C         142.5203  138.9939  162.0897 C.ar    1  UNL1        0.0366
     25 C         143.6098  139.9816  162.3853 C.ar    1  UNL1       -0.0011
     26 C         144.1624  140.0953  163.7751 C.ar    1  UNL1       -0.0203
     27 C         143.6255  139.2211  164.8694 C.ar    1  UNL1       -0.0011
     28 C         142.5360  138.2334  164.5739 C.ar    1  UNL1        0.0366
     29 C         139.4594  137.5080  163.1136 C.3     1  UNL1        0.2525
     30 O         140.8939  137.1320  162.8886 O.3     1  UNL1       -0.4714
@<TRIPOS>BOND
     1    29    30    1
     2    30    23    1
     3    23    24   ar
     4    24    25   ar
     5    25    26   ar
     6    26    22    1
     7    22    21    1
     8    21     1    1
     9     1     2   am
    10     2     3    2
    11     2     4   am
    12     4    15    1
    13    15    17    1
    14    17    18    1
    15    17    19    2
    16    17    20    2
    17     4     5    1
    18     5     6    1
    19     6     7    1
    20     7     8   ar
    21     8     9   ar
    22     9    10   ar
    23    10    11    1
    24    10    12   ar
    25    12    13    1
    26    12    14   ar
    27    26    27   ar
    28    27    28   ar
    29    28    23   ar
    30     6     1    1
    31    14     7   ar
    32    15    16    1
@<TRIPOS>MOLECULE
*****
 30 32 0 0 0
SMALL
GASTEIGER

@<TRIPOS>ATOM
      1 N         140.7911  144.2810  163.2088 N.am    1  UNL1       -0.2588
      2 C         140.7006  145.2433  162.0617 C.2     1  UNL1        0.3219
      3 O         139.8163  146.4530  161.9934 O.2     1  UNL1       -0.2510
      4 N         141.6496  144.7835  160.9949 N.am    1  UNL1       -0.1885
      5 C         142.3266  143.5370  161.4827 C.3     1  UNL1        0.1388
      6 C         141.7961  143.2264  162.8509 C.3     1  UNL1        0.1208
      7 C         142.1996  142.0652  163.7103 C.ar    1  UNL1       -0.0028
      8 C         143.0592  142.2896  164.9190 C.ar    1  UNL1       -0.0030
      9 C         143.4627  141.1283  165.7785 C.ar    1  UNL1       -0.0048
     10 C         143.0066  139.7427  165.4293 C.ar    1  UNL1       -0.0258
     11 C         143.4101  138.5814  166.2888 C.3     1  UNL1        0.0307
     12 C         142.1470  139.5182  164.2208 C.ar    1  UNL1       -0.0260
     13 C         141.6910  138.1325  163.8716 C.3     1  UNL1        0.0307
     14 C         141.7435  140.6795  163.3613 C.ar    1  UNL1       -0.0072
     15 N         141.8809  145.4527  159.6726 N.3     1  UNL1       -0.1073
     16 H         142.8782  145.6598  159.6179 H       1  UNL1        0.1715
     17 S         141.5149  144.7469  158.4006 S.O2    1  UNL1        0.0573
     18 C         141.1488  144.0412  157.1287 C.3     1  UNL1        0.1974
     19 O         140.0731  145.0969  158.6214 O.2     1  UNL1       -0.1561
     20 O         142.9567  144.3970  158.1798 O.2     1  UNL1       -0.1561
     21 C         140.0132  144.3594  164.4889 C.3     1  UNL1        0.1000
     22 C         139.1181  143.2258  164.8933 C.3     1  UNL1        0.0479
     23 C         140.3641  140.4460  168.2054 C.ar    1  UNL1        0.1387
     24 C         139.5859  139.9186  167.0366 C.ar    1  UNL1        0.0366
     25 C         139.1705  140.8452  165.9326 C.ar    1  UNL1       -0.0011
     26 C         139.5334  142.2992  165.9973 C.ar    1  UNL1       -0.0203
     27 C         140.3117  142.8266  167.1661 C.ar    1  UNL1       -0.0011
     28 C         140.7270  141.9000  168.2702 C.ar    1  UNL1        0.0366
     29 C         142.2147  139.4637  169.7417 C.3     1  UNL1        0.2525
     30 O         140.7795  139.5194  169.3095 O.3     1  UNL1       -0.4714
@<TRIPOS>BOND
     1    29    30    1
     2    30    23    1
     3    23    24   ar
     4    24    25   ar
     5    25    26   ar
     6    26    22    1
     7    22    21    1
     8    21     1    1
     9     1     2   am
    10     2     3    2
    11     2     4   am
    12     4    15    1
    13    15    17    1
    14    17    18    1
    15    17    19    2
    16    17    20    2
    17     4     5    1
    18     5     6    1
    19     6     7    1
    20     7     8   ar
    21     8     9   ar
    22     9    10   ar
    23    10    11    1
    24    10    12   ar
    25    12    13    1
    26    12    14   ar
    27    26    27   ar
    28    27    28   ar
    29    28    23   ar
    30     6     1    1
    31    14     7   ar
    32    15    16    1
@<TRIPOS>MOLECULE
*****
 30 32 0 0 0
SMALL
GASTEIGER

@<TRIPOS>ATOM
      1 N         140.2438  138.8755  164.8843 N.am    1  UNL1       -0.2588
      2 C         140.2172  138.0658  163.6219 C.2     1  UNL1        0.3219
      3 O         138.9941  137.5010  162.9623 O.2     1  UNL1       -0.2510
      4 N         141.6284  137.9201  163.1348 N.am    1  UNL1       -0.1885
      5 C         142.5272  138.6397  164.0962 C.3     1  UNL1        0.1388
      6 C         141.6715  139.2302  165.1775 C.3     1  UNL1        0.1208
      7 C         142.1580  140.0341  166.3465 C.ar    1  UNL1       -0.0028
      8 C         142.6198  141.4471  166.1450 C.ar    1  UNL1       -0.0030
      9 C         143.1063  142.2511  167.3142 C.ar    1  UNL1       -0.0048
     10 C         143.1312  141.6422  168.6848 C.ar    1  UNL1       -0.0258
     11 C         143.6177  142.4461  169.8540 C.3     1  UNL1        0.0307
     12 C         142.6695  140.2293  168.8864 C.ar    1  UNL1       -0.0260
     13 C         142.6944  139.6204  170.2570 C.3     1  UNL1        0.0307
     14 C         142.1830  139.4254  167.7172 C.ar    1  UNL1       -0.0072
     15 N         142.0643  137.1840  161.9027 N.3     1  UNL1       -0.1073
     16 H         141.2480  136.6794  161.5569 H       1  UNL1        0.1715
     17 S         142.6310  137.9406  160.7381 S.O2    1  UNL1        0.0573
     18 C         143.1978  138.6972  159.5735 C.3     1  UNL1        0.1974
     19 O         141.2453  138.3318  160.3178 O.2     1  UNL1       -0.1561
     20 O         144.0168  137.5494  161.1584 O.2     1  UNL1       -0.1561
     21 C         139.0520  139.2625  165.7088 C.3     1  UNL1        0.1000
     22 C         138.8028  140.7051  166.0358 C.3     1  UNL1        0.0479
     23 C         138.8575  143.7956  162.7654 C.ar    1  UNL1        0.1387
     24 C         137.8413  142.6927  162.7381 C.ar    1  UNL1        0.0366
     25 C         137.8231  141.6625  163.8282 C.ar    1  UNL1       -0.0011
     26 C         138.8210  141.7352  164.9457 C.ar    1  UNL1       -0.0203
     27 C         139.8372  142.8382  164.9730 C.ar    1  UNL1       -0.0011
     28 C         139.8555  143.8684  163.8829 C.ar    1  UNL1        0.0366
     29 C         139.6849  146.0780  161.8402 C.3     1  UNL1        0.2525
     30 O         138.8758  144.8258  161.6753 O.3     1  UNL1       -0.4714
@<TRIPOS>BOND
     1    29    30    1
     2    30    23    1
     3    23    24   ar
     4    24    25   ar
     5    25    26   ar
     6    26    22    1
     7    22    21    1
     8    21     1    1
     9     1     2   am
    10     2     3    2
    11     2     4   am
    12     4    15    1
    13    15    17    1
    14    17    18    1
    15    17    19    2
    16    17    20    2
    17     4     5    1
    18     5     6    1
    19     6     7    1
    20     7     8   ar
    21     8     9   ar
    22     9    10   ar
    23    10    11    1
    24    10    12   ar
    25    12    13    1
    26    12    14   ar
    27    26    27   ar
    28    27    28   ar
    29    28    23   ar
    30     6     1    1
    31    14     7   ar
    32    15    16    1
