@<TRIPOS>MOLECULE
*****
 34 38 0 0 0
SMALL
GASTEIGER

@<TRIPOS>ATOM
      1 N         142.4022  138.0818  162.4153 N.3     1  UNL1       -0.2700
      2 C         141.0409  137.9266  161.8047 C.3     1  UNL1        0.0897
      3 C         139.8385  137.7593  162.6858 C.3     1  UNL1        0.0897
      4 N         139.9973  137.7472  164.1773 N.3     1  UNL1       -0.2680
      5 C         141.3587  137.9024  164.7878 C.3     1  UNL1        0.0897
      6 C         142.5611  138.0697  163.9068 C.3     1  UNL1        0.0897
      7 C         143.6047  138.2491  161.5343 C.3     1  UNL1        0.0769
      8 C         144.0170  139.6179  161.0800 C.3     1  UNL1        0.0433
      9 C         142.5407  142.2072  160.7388 C.3     1  UNL1        0.0305
     10 C         143.4551  142.0142  161.9121 C.ar    1  UNL1       -0.0260
     11 C         144.1933  140.7195  162.0828 C.ar    1  UNL1       -0.0249
     12 C         145.1076  140.5265  163.2560 C.ar    1  UNL1       -0.0043
     13 C         145.2839  141.6281  164.2587 C.ar    1  UNL1        0.0059
     14 C         144.5458  142.9227  164.0881 C.ar    1  UNL1        0.0748
     15 C         143.6314  143.1158  162.9148 C.ar    1  UNL1        0.0233
     16 C         143.0404  144.4912  163.0091 C.3     1  UNL1        0.2352
     17 O         143.5895  145.1481  164.2407 O.3     1  UNL1       -0.4404
     18 C         144.5199  144.1788  164.9076 C.2     1  UNL1        0.3413
     19 O         145.2893  144.4228  166.1719 O.2     1  UNL1       -0.2449
     20 C         138.7949  137.5799  165.0583 C.3     1  UNL1        0.1064
     21 C         138.1663  138.7785  165.7050 C.3     1  UNL1        0.1483
     22 O         137.3811  138.6210  166.9733 O.3     1  UNL1       -0.3786
     23 H         137.3780  137.6878  167.2379 H       1  UNL1        0.2108
     24 C         138.3230  140.1345  165.0833 C.ar    1  UNL1        0.0015
     25 C         137.5747  140.4755  163.8288 C.ar    1  UNL1       -0.0020
     26 C         137.7315  141.8316  163.2071 C.ar    1  UNL1        0.0060
     27 C         138.6365  142.8468  163.8399 C.ar    1  UNL1        0.0748
     28 C         139.3847  142.5058  165.0945 C.ar    1  UNL1        0.0233
     29 C         139.2280  141.1497  165.7161 C.ar    1  UNL1       -0.0238
     30 C         139.9763  140.8088  166.9706 C.3     1  UNL1        0.0306
     31 C         140.1989  143.7025  165.4882 C.3     1  UNL1        0.2352
     32 O         139.9538  144.7830  164.4771 O.3     1  UNL1       -0.4404
     33 C         138.9882  144.2542  163.4584 C.2     1  UNL1        0.3413
     34 O         138.4660  145.0015  162.2673 O.2     1  UNL1       -0.2449
@<TRIPOS>BOND
     1     9    10    1
     2    10    11   ar
     3    11     8    1
     4     8     7    1
     5     7     1    1
     6     1     2    1
     7     2     3    1
     8     3     4    1
     9     4    20    1
    10    20    21    1
    11    21    22    1
    12    21    24    1
    13    24    25   ar
    14    25    26   ar
    15    26    27   ar
    16    27    28   ar
    17    28    29   ar
    18    29    30    1
    19    28    31    1
    20    31    32    1
    21    32    33    1
    22    33    34    2
    23     4     5    1
    24     5     6    1
    25    11    12   ar
    26    12    13   ar
    27    13    14   ar
    28    14    15   ar
    29    15    16    1
    30    16    17    1
    31    17    18    1
    32    18    19    2
    33    15    10   ar
    34     6     1    1
    35    18    14    1
    36    29    24   ar
    37    33    27    1
    38    22    23    1
@<TRIPOS>MOLECULE
*****
 34 38 0 0 0
SMALL
GASTEIGER

@<TRIPOS>ATOM
      1 N         141.6306  138.1475  164.4705 N.3     1  UNL1       -0.2700
      2 C         140.2453  137.5910  164.6170 C.3     1  UNL1        0.0897
      3 C         139.2640  137.7154  163.4893 C.3     1  UNL1        0.0897
      4 N         139.6678  138.3962  162.2152 N.3     1  UNL1       -0.2680
      5 C         141.0531  138.9527  162.0688 C.3     1  UNL1        0.0897
      6 C         142.0344  138.8283  163.1964 C.3     1  UNL1        0.0897
      7 C         142.6119  138.0232  165.5980 C.3     1  UNL1        0.0769
      8 C         143.2449  139.2521  166.1804 C.3     1  UNL1        0.0433
      9 C         141.6869  141.7734  165.7152 C.3     1  UNL1        0.0305
     10 C         141.8155  141.2162  167.1020 C.ar    1  UNL1       -0.0260
     11 C         142.5944  139.9556  167.3346 C.ar    1  UNL1       -0.0249
     12 C         142.7230  139.3985  168.7213 C.ar    1  UNL1       -0.0043
     13 C         142.0726  140.1019  169.8755 C.ar    1  UNL1        0.0059
     14 C         141.2937  141.3625  169.6429 C.ar    1  UNL1        0.0748
     15 C         141.1651  141.9197  168.2562 C.ar    1  UNL1        0.0233
     16 C         140.3405  143.1703  168.3337 C.3     1  UNL1        0.2352
     17 O         139.9595  143.3861  169.7683 O.3     1  UNL1       -0.4404
     18 C         140.5485  142.2688  170.5775 C.2     1  UNL1        0.3413
     19 O         140.4158  142.0894  172.0608 O.2     1  UNL1       -0.2449
     20 C         138.6865  138.5205  161.0877 C.3     1  UNL1        0.1064
     21 C         137.6975  139.6483  161.0750 C.3     1  UNL1        0.1483
     22 O         136.4603  139.5515  160.2324 O.3     1  UNL1       -0.3786
     23 H         136.4543  138.7026  159.7631 H       1  UNL1        0.2108
     24 C         137.9459  140.8728  161.9049 C.ar    1  UNL1        0.0015
     25 C         137.4719  140.9239  163.3271 C.ar    1  UNL1       -0.0020
     26 C         137.7203  142.1484  164.1570 C.ar    1  UNL1        0.0060
     27 C         138.4428  143.3221  163.5647 C.ar    1  UNL1        0.0748
     28 C         138.9168  143.2710  162.1424 C.ar    1  UNL1        0.0233
     29 C         138.6683  142.0464  161.3125 C.ar    1  UNL1       -0.0238
     30 C         139.1423  141.9954  159.8904 C.3     1  UNL1        0.0306
     31 C         139.5963  144.5720  161.8334 C.3     1  UNL1        0.2352
     32 O         139.5423  145.4271  163.0646 O.3     1  UNL1       -0.4404
     33 C         138.8294  144.6546  164.1346 C.2     1  UNL1        0.3413
     34 O         138.5517  145.1310  165.5295 O.2     1  UNL1       -0.2449
@<TRIPOS>BOND
     1     9    10    1
     2    10    11   ar
     3    11     8    1
     4     8     7    1
     5     7     1    1
     6     1     2    1
     7     2     3    1
     8     3     4    1
     9     4    20    1
    10    20    21    1
    11    21    22    1
    12    21    24    1
    13    24    25   ar
    14    25    26   ar
    15    26    27   ar
    16    27    28   ar
    17    28    29   ar
    18    29    30    1
    19    28    31    1
    20    31    32    1
    21    32    33    1
    22    33    34    2
    23     4     5    1
    24     5     6    1
    25    11    12   ar
    26    12    13   ar
    27    13    14   ar
    28    14    15   ar
    29    15    16    1
    30    16    17    1
    31    17    18    1
    32    18    19    2
    33    15    10   ar
    34     6     1    1
    35    18    14    1
    36    29    24   ar
    37    33    27    1
    38    22    23    1
@<TRIPOS>MOLECULE
*****
 34 38 0 0 0
SMALL
GASTEIGER

@<TRIPOS>ATOM
      1 N         141.4949  138.2450  164.7009 N.3     1  UNL1       -0.2700
      2 C         141.8161  139.1384  165.8622 C.3     1  UNL1        0.0897
      3 C         142.9221  140.1456  165.7501 C.3     1  UNL1        0.0897
      4 N         143.7068  140.2594  164.4768 N.3     1  UNL1       -0.2680
      5 C         143.3855  139.3659  163.3155 C.3     1  UNL1        0.0897
      6 C         142.2796  138.3587  163.4276 C.3     1  UNL1        0.0897
      7 C         140.3890  137.2378  164.8129 C.3     1  UNL1        0.0769
      8 C         138.9618  137.6698  164.6504 C.3     1  UNL1        0.0433
      9 C         138.7233  138.2673  161.7201 C.3     1  UNL1        0.0305
     10 C         138.5282  139.3619  162.7270 C.ar    1  UNL1       -0.0260
     11 C         138.6475  139.0632  164.1922 C.ar    1  UNL1       -0.0249
     12 C         138.4524  140.1577  165.1990 C.ar    1  UNL1       -0.0043
     13 C         138.1382  141.5510  164.7409 C.ar    1  UNL1        0.0059
     14 C         138.0189  141.8497  163.2758 C.ar    1  UNL1        0.0748
     15 C         138.2140  140.7552  162.2688 C.ar    1  UNL1        0.0233
     16 C         138.0362  141.3460  160.9016 C.3     1  UNL1        0.2352
     17 O         137.7313  142.8057  161.0636 O.3     1  UNL1       -0.4404
     18 C         137.7206  143.1171  162.5309 C.2     1  UNL1        0.3413
     19 O         137.4577  144.4599  163.1454 O.2     1  UNL1       -0.2449
     20 C         144.8126  141.2666  164.3648 C.3     1  UNL1        0.1064
     21 C         144.9216  142.1279  163.1416 C.3     1  UNL1        0.1483
     22 O         146.1637  142.0843  162.3018 O.3     1  UNL1       -0.3786
     23 H         146.7920  141.4532  162.6863 H       1  UNL1        0.2108
     24 C         143.7884  143.0328  162.7582 C.ar    1  UNL1        0.0015
     25 C         143.4254  144.1935  163.6363 C.ar    1  UNL1       -0.0020
     26 C         142.2922  145.0983  163.2528 C.ar    1  UNL1        0.0060
     27 C         141.5219  144.8425  161.9913 C.ar    1  UNL1        0.0748
     28 C         141.8849  143.6818  161.1133 C.ar    1  UNL1        0.0233
     29 C         143.0182  142.7769  161.4967 C.ar    1  UNL1       -0.0238
     30 C         143.3811  141.6162  160.6187 C.3     1  UNL1        0.0306
     31 C         140.9519  143.6795  159.9388 C.3     1  UNL1        0.2352
     32 O         140.0123  144.8388  160.0910 O.3     1  UNL1       -0.4404
     33 C         140.3645  145.5575  161.3595 C.2     1  UNL1        0.3413
     34 O         139.6797  146.7772  161.9011 O.2     1  UNL1       -0.2449
@<TRIPOS>BOND
     1     9    10    1
     2    10    11   ar
     3    11     8    1
     4     8     7    1
     5     7     1    1
     6     1     2    1
     7     2     3    1
     8     3     4    1
     9     4    20    1
    10    20    21    1
    11    21    22    1
    12    21    24    1
    13    24    25   ar
    14    25    26   ar
    15    26    27   ar
    16    27    28   ar
    17    28    29   ar
    18    29    30    1
    19    28    31    1
    20    31    32    1
    21    32    33    1
    22    33    34    2
    23     4     5    1
    24     5     6    1
    25    11    12   ar
    26    12    13   ar
    27    13    14   ar
    28    14    15   ar
    29    15    16    1
    30    16    17    1
    31    17    18    1
    32    18    19    2
    33    15    10   ar
    34     6     1    1
    35    18    14    1
    36    29    24   ar
    37    33    27    1
    38    22    23    1
@<TRIPOS>MOLECULE
*****
 34 38 0 0 0
SMALL
GASTEIGER

@<TRIPOS>ATOM
      1 N         139.9868  137.7358  164.3146 N.3     1  UNL1       -0.2700
      2 C         139.8147  137.6631  162.8263 C.3     1  UNL1        0.0897
      3 C         141.0093  137.7798  161.9266 C.3     1  UNL1        0.0897
      4 N         142.3759  137.9692  162.5151 N.3     1  UNL1       -0.2680
      5 C         142.5480  138.0419  164.0035 C.3     1  UNL1        0.0897
      6 C         141.3535  137.9252  164.9032 C.3     1  UNL1        0.0897
      7 C         138.7924  137.6191  165.2144 C.3     1  UNL1        0.0769
      8 C         138.2445  138.8380  165.8955 C.3     1  UNL1        0.0433
      9 C         139.9220  141.0075  167.1119 C.3     1  UNL1        0.0305
     10 C         139.1778  141.2620  165.8346 C.ar    1  UNL1       -0.0260
     11 C         138.3390  140.1773  165.2264 C.ar    1  UNL1       -0.0249
     12 C         137.5948  140.4318  163.9492 C.ar    1  UNL1       -0.0043
     13 C         137.6893  141.7709  163.2801 C.ar    1  UNL1        0.0059
     14 C         138.5281  142.8557  163.8883 C.ar    1  UNL1        0.0748
     15 C         139.2723  142.6012  165.1655 C.ar    1  UNL1        0.0233
     16 C         140.0147  143.8535  165.5269 C.3     1  UNL1        0.2352
     17 O         139.7294  144.8819  164.4729 O.3     1  UNL1       -0.4404
     18 C         138.8105  144.2652  163.4602 C.2     1  UNL1        0.3413
     19 O         138.2693  144.9397  162.2346 O.2     1  UNL1       -0.2449
     20 C         143.5704  138.0859  161.6154 C.3     1  UNL1        0.1064
     21 C         144.0163  139.4340  161.1319 C.3     1  UNL1        0.1483
     22 O         144.3055  139.6508  159.6761 O.3     1  UNL1       -0.3786
     23 H         144.1558  138.8247  159.1902 H       1  UNL1        0.2108
     24 C         144.1729  140.5654  162.1042 C.ar    1  UNL1        0.0015
     25 C         145.1645  140.4595  163.2248 C.ar    1  UNL1       -0.0020
     26 C         145.3210  141.5909  164.1971 C.ar    1  UNL1        0.0060
     27 C         144.4861  142.8282  164.0489 C.ar    1  UNL1        0.0748
     28 C         143.4945  142.9341  162.9284 C.ar    1  UNL1        0.0233
     29 C         143.3379  141.8026  161.9560 C.ar    1  UNL1       -0.0238
     30 C         142.3464  141.9086  160.8356 C.3     1  UNL1        0.0306
     31 C         142.8157  144.2674  163.0347 C.3     1  UNL1        0.2352
     32 O         143.3876  144.9855  164.2209 O.3     1  UNL1       -0.4404
     33 C         144.4200  144.0961  164.8477 C.2     1  UNL1        0.3413
     34 O         145.2420  144.4180  166.0604 O.2     1  UNL1       -0.2449
@<TRIPOS>BOND
     1     9    10    1
     2    10    11   ar
     3    11     8    1
     4     8     7    1
     5     7     1    1
     6     1     2    1
     7     2     3    1
     8     3     4    1
     9     4    20    1
    10    20    21    1
    11    21    22    1
    12    21    24    1
    13    24    25   ar
    14    25    26   ar
    15    26    27   ar
    16    27    28   ar
    17    28    29   ar
    18    29    30    1
    19    28    31    1
    20    31    32    1
    21    32    33    1
    22    33    34    2
    23     4     5    1
    24     5     6    1
    25    11    12   ar
    26    12    13   ar
    27    13    14   ar
    28    14    15   ar
    29    15    16    1
    30    16    17    1
    31    17    18    1
    32    18    19    2
    33    15    10   ar
    34     6     1    1
    35    18    14    1
    36    29    24   ar
    37    33    27    1
    38    22    23    1
@<TRIPOS>MOLECULE
*****
 34 38 0 0 0
SMALL
GASTEIGER

@<TRIPOS>ATOM
      1 N         137.9124  140.3588  162.0127 N.3     1  UNL1       -0.2700
      2 C         137.7915  140.8806  163.4139 C.3     1  UNL1        0.0897
      3 C         137.9654  142.3455  163.6862 C.3     1  UNL1        0.0897
      4 N         138.2602  143.2884  162.5574 N.3     1  UNL1       -0.2680
      5 C         138.3811  142.7665  161.1563 C.3     1  UNL1        0.0897
      6 C         138.2072  141.3017  160.8840 C.3     1  UNL1        0.0897
      7 C         137.7385  138.8940  161.7403 C.3     1  UNL1        0.0769
      8 C         138.9394  137.9990  161.6565 C.3     1  UNL1        0.0433
      9 C         141.6870  138.8775  160.8323 C.3     1  UNL1        0.0305
     10 C         141.4039  138.5488  162.2682 C.ar    1  UNL1       -0.0260
     11 C         140.0301  138.1095  162.6804 C.ar    1  UNL1       -0.0249
     12 C         139.7470  137.7808  164.1162 C.ar    1  UNL1       -0.0043
     13 C         140.8377  137.8913  165.1400 C.ar    1  UNL1        0.0059
     14 C         142.2115  138.3305  164.7279 C.ar    1  UNL1        0.0748
     15 C         142.4946  138.6593  163.2920 C.ar    1  UNL1        0.0233
     16 C         143.9353  139.0627  163.1842 C.3     1  UNL1        0.2352
     17 O         144.5426  138.9833  164.5535 O.3     1  UNL1       -0.4404
     18 C         143.4772  138.5308  165.5075 C.2     1  UNL1        0.3413
     19 O         143.6477  138.3162  166.9823 O.2     1  UNL1       -0.2449
     20 C         138.4340  144.7532  162.8298 C.3     1  UNL1        0.1064
     21 C         139.7383  145.4247  162.5166 C.3     1  UNL1        0.1483
     22 O         139.7515  146.8312  161.9956 O.3     1  UNL1       -0.3786
     23 H         138.8409  147.1568  161.9205 H       1  UNL1        0.2108
     24 C         141.0291  144.6895  162.7242 C.ar    1  UNL1        0.0015
     25 C         141.5284  144.4286  164.1144 C.ar    1  UNL1       -0.0020
     26 C         142.8193  143.6934  164.3219 C.ar    1  UNL1        0.0060
     27 C         143.6110  143.2192  163.1394 C.ar    1  UNL1        0.0748
     28 C         143.1117  143.4801  161.7492 C.ar    1  UNL1        0.0233
     29 C         141.8207  144.2153  161.5416 C.ar    1  UNL1       -0.0238
     30 C         141.3215  144.4762  160.1515 C.3     1  UNL1        0.0306
     31 C         144.1009  142.8967  160.7843 C.3     1  UNL1        0.2352
     32 O         145.2115  142.2752  161.5781 O.3     1  UNL1       -0.4404
     33 C         144.9088  142.4745  163.0336 C.2     1  UNL1        0.3413
     34 O         145.7551  142.0105  164.1818 O.2     1  UNL1       -0.2449
@<TRIPOS>BOND
     1     9    10    1
     2    10    11   ar
     3    11     8    1
     4     8     7    1
     5     7     1    1
     6     1     2    1
     7     2     3    1
     8     3     4    1
     9     4    20    1
    10    20    21    1
    11    21    22    1
    12    21    24    1
    13    24    25   ar
    14    25    26   ar
    15    26    27   ar
    16    27    28   ar
    17    28    29   ar
    18    29    30    1
    19    28    31    1
    20    31    32    1
    21    32    33    1
    22    33    34    2
    23     4     5    1
    24     5     6    1
    25    11    12   ar
    26    12    13   ar
    27    13    14   ar
    28    14    15   ar
    29    15    16    1
    30    16    17    1
    31    17    18    1
    32    18    19    2
    33    15    10   ar
    34     6     1    1
    35    18    14    1
    36    29    24   ar
    37    33    27    1
    38    22    23    1
@<TRIPOS>MOLECULE
*****
 34 38 0 0 0
SMALL
GASTEIGER

@<TRIPOS>ATOM
      1 N         144.1365  140.1464  164.1580 N.3     1  UNL1       -0.2700
      2 C         143.3982  140.1290  165.4635 C.3     1  UNL1        0.0897
      3 C         142.2354  139.2008  165.6552 C.3     1  UNL1        0.0897
      4 N         141.8111  138.2901  164.5413 N.3     1  UNL1       -0.2680
      5 C         142.5496  138.3076  163.2358 C.3     1  UNL1        0.0897
      6 C         143.7122  139.2357  163.0441 C.3     1  UNL1        0.0897
      7 C         145.2993  141.0744  163.9663 C.3     1  UNL1        0.0769
      8 C         145.3417  141.9879  162.7772 C.3     1  UNL1        0.0433
      9 C         143.7399  141.5868  160.2725 C.3     1  UNL1        0.0305
     10 C         143.3768  142.6854  161.2270 C.ar    1  UNL1       -0.0260
     11 C         144.1777  142.8860  162.4794 C.ar    1  UNL1       -0.0249
     12 C         143.8146  143.9845  163.4340 C.ar    1  UNL1       -0.0043
     13 C         142.6507  144.8826  163.1363 C.ar    1  UNL1        0.0059
     14 C         141.8498  144.6821  161.8839 C.ar    1  UNL1        0.0748
     15 C         142.2128  143.5835  160.9293 C.ar    1  UNL1        0.0233
     16 C         141.2462  143.6271  159.7832 C.3     1  UNL1        0.2352
     17 O         140.2857  144.7526  160.0295 O.3     1  UNL1       -0.4404
     18 C         140.6587  145.4047  161.3278 C.2     1  UNL1        0.3413
     19 O         139.9629  146.5739  161.9591 O.2     1  UNL1       -0.2449
     20 C         140.6484  137.3621  164.7330 C.3     1  UNL1        0.1064
     21 C         139.2707  137.9184  164.9390 C.3     1  UNL1        0.1483
     22 O         138.2550  137.1369  165.7184 O.3     1  UNL1       -0.3786
     23 H         138.6484  136.3016  166.0157 H       1  UNL1        0.2108
     24 C         138.9088  139.2564  164.3655 C.ar    1  UNL1        0.0015
     25 C         138.7428  140.4405  165.2712 C.ar    1  UNL1       -0.0020
     26 C         138.3809  141.7785  164.6976 C.ar    1  UNL1        0.0060
     27 C         138.1850  141.9323  163.2184 C.ar    1  UNL1        0.0748
     28 C         138.3509  140.7481  162.3128 C.ar    1  UNL1        0.0233
     29 C         138.7129  139.4101  162.8864 C.ar    1  UNL1       -0.0238
     30 C         138.8788  138.2261  161.9807 C.3     1  UNL1        0.0306
     31 C         138.0959  141.2013  160.9058 C.3     1  UNL1        0.2352
     32 O         137.7723  142.6655  160.9420 O.3     1  UNL1       -0.4404
     33 C         137.8274  143.1173  162.3712 C.2     1  UNL1        0.3413
     34 O         137.5700  144.5096  162.8663 O.2     1  UNL1       -0.2449
@<TRIPOS>BOND
     1     9    10    1
     2    10    11   ar
     3    11     8    1
     4     8     7    1
     5     7     1    1
     6     1     2    1
     7     2     3    1
     8     3     4    1
     9     4    20    1
    10    20    21    1
    11    21    22    1
    12    21    24    1
    13    24    25   ar
    14    25    26   ar
    15    26    27   ar
    16    27    28   ar
    17    28    29   ar
    18    29    30    1
    19    28    31    1
    20    31    32    1
    21    32    33    1
    22    33    34    2
    23     4     5    1
    24     5     6    1
    25    11    12   ar
    26    12    13   ar
    27    13    14   ar
    28    14    15   ar
    29    15    16    1
    30    16    17    1
    31    17    18    1
    32    18    19    2
    33    15    10   ar
    34     6     1    1
    35    18    14    1
    36    29    24   ar
    37    33    27    1
    38    22    23    1
@<TRIPOS>MOLECULE
*****
 34 38 0 0 0
SMALL
GASTEIGER

@<TRIPOS>ATOM
      1 N         139.1915  138.4786  162.1659 N.3     1  UNL1       -0.2700
      2 C         140.6033  138.8962  161.8789 C.3     1  UNL1        0.0897
      3 C         141.6550  138.7641  162.9403 C.3     1  UNL1        0.0897
      4 N         141.2949  138.2144  164.2887 N.3     1  UNL1       -0.2680
      5 C         139.8831  137.7967  164.5756 C.3     1  UNL1        0.0897
      6 C         138.8314  137.9288  163.5143 C.3     1  UNL1        0.0897
      7 C         138.1397  138.6106  161.1046 C.3     1  UNL1        0.0769
      8 C         137.4295  139.9176  160.9110 C.3     1  UNL1        0.0433
      9 C         139.0681  142.1763  159.8093 C.3     1  UNL1        0.0305
     10 C         138.5884  142.2211  161.2299 C.ar    1  UNL1       -0.0260
     11 C         137.7691  141.0917  161.7808 C.ar    1  UNL1       -0.0249
     12 C         137.2893  141.1365  163.2012 C.ar    1  UNL1       -0.0043
     13 C         137.6288  142.3105  164.0709 C.ar    1  UNL1        0.0059
     14 C         138.4481  143.4398  163.5201 C.ar    1  UNL1        0.0748
     15 C         138.9279  143.3951  162.0996 C.ar    1  UNL1        0.0233
     16 C         139.7124  144.6460  161.8357 C.3     1  UNL1        0.2352
     17 O         139.7175  145.4639  163.0931 O.3     1  UNL1       -0.4404
     18 C         138.9361  144.7184  164.1341 C.2     1  UNL1        0.3413
     19 O         138.6865  145.1719  165.5419 O.2     1  UNL1       -0.2449
     20 C         142.3467  138.0823  165.3500 C.3     1  UNL1        0.1064
     21 C         143.0161  139.3072  165.8990 C.3     1  UNL1        0.1483
     22 O         144.2518  139.8454  165.2405 O.3     1  UNL1       -0.3786
     23 H         144.4817  139.2886  164.4803 H       1  UNL1        0.2108
     24 C         142.4499  139.9938  167.1064 C.ar    1  UNL1        0.0015
     25 C         142.6948  139.4290  168.4742 C.ar    1  UNL1       -0.0020
     26 C         142.1286  140.1156  169.6816 C.ar    1  UNL1        0.0060
     27 C         141.3174  141.3672  169.5213 C.ar    1  UNL1        0.0748
     28 C         141.0725  141.9321  168.1534 C.ar    1  UNL1        0.0233
     29 C         141.6388  141.2454  166.9460 C.ar    1  UNL1       -0.0238
     30 C         141.3939  141.8103  165.5782 C.3     1  UNL1        0.0306
     31 C         140.2406  143.1709  168.3057 C.3     1  UNL1        0.2352
     32 O         139.9713  143.3716  169.7676 O.3     1  UNL1       -0.4404
     33 C         140.6368  142.2569  170.5188 C.2     1  UNL1        0.3413
     34 O         140.6240  142.0655  172.0065 O.2     1  UNL1       -0.2449
@<TRIPOS>BOND
     1     9    10    1
     2    10    11   ar
     3    11     8    1
     4     8     7    1
     5     7     1    1
     6     1     2    1
     7     2     3    1
     8     3     4    1
     9     4    20    1
    10    20    21    1
    11    21    22    1
    12    21    24    1
    13    24    25   ar
    14    25    26   ar
    15    26    27   ar
    16    27    28   ar
    17    28    29   ar
    18    29    30    1
    19    28    31    1
    20    31    32    1
    21    32    33    1
    22    33    34    2
    23     4     5    1
    24     5     6    1
    25    11    12   ar
    26    12    13   ar
    27    13    14   ar
    28    14    15   ar
    29    15    16    1
    30    16    17    1
    31    17    18    1
    32    18    19    2
    33    15    10   ar
    34     6     1    1
    35    18    14    1
    36    29    24   ar
    37    33    27    1
    38    22    23    1
@<TRIPOS>MOLECULE
*****
 34 38 0 0 0
SMALL
GASTEIGER

@<TRIPOS>ATOM
      1 N         138.3356  140.8112  164.2594 N.3     1  UNL1       -0.2700
      2 C         138.1538  142.0487  165.0875 C.3     1  UNL1        0.0897
      3 C         138.3135  143.4015  164.4595 C.3     1  UNL1        0.0897
      4 N         138.6549  143.5169  163.0034 N.3     1  UNL1       -0.2680
      5 C         138.8367  142.2794  162.1753 C.3     1  UNL1        0.0897
      6 C         138.6770  140.9267  162.8034 C.3     1  UNL1        0.0897
      7 C         138.1760  139.4584  164.8873 C.3     1  UNL1        0.0769
      8 C         139.2395  138.9255  165.8011 C.3     1  UNL1        0.0433
      9 C         141.6905  140.6553  165.7830 C.3     1  UNL1        0.0305
     10 C         140.8506  140.5578  167.0220 C.ar    1  UNL1       -0.0260
     11 C         139.6250  139.6928  167.0311 C.ar    1  UNL1       -0.0249
     12 C         138.7852  139.5952  168.2700 C.ar    1  UNL1       -0.0043
     13 C         139.1707  140.3625  169.4998 C.ar    1  UNL1        0.0059
     14 C         140.3962  141.2274  169.4908 C.ar    1  UNL1        0.0748
     15 C         141.2361  141.3251  168.2519 C.ar    1  UNL1        0.0233
     16 C         142.3803  142.2514  168.5393 C.3     1  UNL1        0.2352
     17 O         142.2475  142.7264  169.9559 O.3     1  UNL1       -0.4404
     18 C         141.0212  142.0935  170.5440 C.2     1  UNL1        0.3413
     19 O         140.5098  142.2919  171.9401 O.2     1  UNL1       -0.2449
     20 C         138.8145  144.8698  162.3755 C.3     1  UNL1        0.1064
     21 C         140.1500  145.5525  162.3943 C.3     1  UNL1        0.1483
     22 O         140.2355  147.0382  162.2062 O.3     1  UNL1       -0.3786
     23 H         139.3439  147.4008  162.0863 H       1  UNL1        0.2108
     24 C         141.3999  144.7495  162.6011 C.ar    1  UNL1        0.0015
     25 C         141.9357  144.5392  163.9863 C.ar    1  UNL1       -0.0020
     26 C         143.1856  143.7361  164.1930 C.ar    1  UNL1        0.0060
     27 C         143.8998  143.1433  163.0147 C.ar    1  UNL1        0.0748
     28 C         143.3641  143.3536  161.6295 C.ar    1  UNL1        0.0233
     29 C         142.1141  144.1567  161.4227 C.ar    1  UNL1       -0.0238
     30 C         141.5784  144.3670  160.0376 C.3     1  UNL1        0.0306
     31 C         144.2770  142.6522  160.6680 C.3     1  UNL1        0.2352
     32 O         145.3769  142.0084  161.4589 O.3     1  UNL1       -0.4404
     33 C         145.1439  142.3119  162.9092 C.2     1  UNL1        0.3413
     34 O         146.0038  141.8629  164.0532 O.2     1  UNL1       -0.2449
@<TRIPOS>BOND
     1     9    10    1
     2    10    11   ar
     3    11     8    1
     4     8     7    1
     5     7     1    1
     6     1     2    1
     7     2     3    1
     8     3     4    1
     9     4    20    1
    10    20    21    1
    11    21    22    1
    12    21    24    1
    13    24    25   ar
    14    25    26   ar
    15    26    27   ar
    16    27    28   ar
    17    28    29   ar
    18    29    30    1
    19    28    31    1
    20    31    32    1
    21    32    33    1
    22    33    34    2
    23     4     5    1
    24     5     6    1
    25    11    12   ar
    26    12    13   ar
    27    13    14   ar
    28    14    15   ar
    29    15    16    1
    30    16    17    1
    31    17    18    1
    32    18    19    2
    33    15    10   ar
    34     6     1    1
    35    18    14    1
    36    29    24   ar
    37    33    27    1
    38    22    23    1
@<TRIPOS>MOLECULE
*****
 34 38 0 0 0
SMALL
GASTEIGER

@<TRIPOS>ATOM
      1 N         141.0699  145.1366  161.9797 N.3     1  UNL1       -0.2700
      2 C         141.3896  144.4091  160.7075 C.3     1  UNL1        0.0897
      3 C         142.6793  143.6539  160.5792 C.3     1  UNL1        0.0897
      4 N         143.6493  143.6262  161.7231 N.3     1  UNL1       -0.2680
      5 C         143.3295  144.3537  162.9953 C.3     1  UNL1        0.0897
      6 C         142.0398  145.1089  163.1236 C.3     1  UNL1        0.0897
      7 C         139.7802  145.8917  162.1081 C.3     1  UNL1        0.0769
      8 C         138.6028  145.2555  162.7855 C.3     1  UNL1        0.0433
      9 C         139.0118  143.7639  165.3561 C.3     1  UNL1        0.0305
     10 C         138.6759  143.0157  164.1002 C.ar    1  UNL1       -0.0260
     11 C         138.4714  143.7615  162.8148 C.ar    1  UNL1       -0.0249
     12 C         138.1356  143.0133  161.5589 C.ar    1  UNL1       -0.0043
     13 C         138.0042  141.5194  161.5882 C.ar    1  UNL1        0.0059
     14 C         138.2087  140.7736  162.8735 C.ar    1  UNL1        0.0748
     15 C         138.5446  141.5218  164.1295 C.ar    1  UNL1        0.0233
     16 C         138.6886  140.5232  165.2395 C.3     1  UNL1        0.2352
     17 O         138.4417  139.1578  164.6695 O.3     1  UNL1       -0.4404
     18 C         138.1451  139.3126  163.2072 C.2     1  UNL1        0.3413
     19 O         137.8388  138.2014  162.2473 O.2     1  UNL1       -0.2449
     20 C         144.9389  142.8711  161.5947 C.3     1  UNL1        0.1064
     21 C         145.2910  141.8122  162.5972 C.3     1  UNL1        0.1483
     22 O         146.6363  141.8250  163.2605 O.3     1  UNL1       -0.3786
     23 H         147.1520  142.5777  162.9312 H       1  UNL1        0.2108
     24 C         144.2977  140.7406  162.9362 C.ar    1  UNL1        0.0015
     25 C         143.9347  140.4803  164.3681 C.ar    1  UNL1       -0.0020
     26 C         142.9414  139.4086  164.7071 C.ar    1  UNL1        0.0060
     27 C         142.3111  138.5972  163.6142 C.ar    1  UNL1        0.0748
     28 C         142.6741  138.8575  162.1823 C.ar    1  UNL1        0.0233
     29 C         143.6675  139.9292  161.8433 C.ar    1  UNL1       -0.0238
     30 C         144.0305  140.1895  160.4114 C.3     1  UNL1        0.0306
     31 C         141.8948  137.9041  161.3258 C.3     1  UNL1        0.2352
     32 O         141.0502  137.0545  162.2285 O.3     1  UNL1       -0.4404
     33 C         141.3074  137.4829  163.6427 C.2     1  UNL1        0.3413
     34 O         140.6725  136.8994  164.8701 O.2     1  UNL1       -0.2449
@<TRIPOS>BOND
     1     9    10    1
     2    10    11   ar
     3    11     8    1
     4     8     7    1
     5     7     1    1
     6     1     2    1
     7     2     3    1
     8     3     4    1
     9     4    20    1
    10    20    21    1
    11    21    22    1
    12    21    24    1
    13    24    25   ar
    14    25    26   ar
    15    26    27   ar
    16    27    28   ar
    17    28    29   ar
    18    29    30    1
    19    28    31    1
    20    31    32    1
    21    32    33    1
    22    33    34    2
    23     4     5    1
    24     5     6    1
    25    11    12   ar
    26    12    13   ar
    27    13    14   ar
    28    14    15   ar
    29    15    16    1
    30    16    17    1
    31    17    18    1
    32    18    19    2
    33    15    10   ar
    34     6     1    1
    35    18    14    1
    36    29    24   ar
    37    33    27    1
    38    22    23    1
