@<TRIPOS>MOLECULE
*****
 16 17 0 0 0
SMALL
GASTEIGER

@<TRIPOS>ATOM
      1 C         143.7939  142.2511  169.9518 C.3     1  UNL1        0.0319
      2 C         142.7797  142.3772  168.8540 C.ar    1  UNL1       -0.0113
      3 C         143.1951  142.1936  167.4244 C.ar    1  UNL1       -0.0037
      4 C         142.1807  142.3197  166.3265 C.ar    1  UNL1       -0.0045
      5 C         140.7511  142.6295  166.6582 C.ar    1  UNL1       -0.0200
      6 C         140.3357  142.8131  168.0878 C.ar    1  UNL1        0.0069
      7 C         141.3499  142.6870  169.1857 C.ar    1  UNL1        0.0534
      8 CL        140.9345  142.8706  170.6153 Cl      1  UNL1       -0.0826
      9 C         139.7368  142.7556  165.5603 C.3     1  UNL1        0.0424
     10 C         139.6419  144.1060  164.9140 C.3     1  UNL1        0.0315
     11 C         138.7382  144.5490  163.8017 C.2     1  UNL1       -0.0289
     12 C         137.7064  143.7511  163.0610 C.2     1  UNL1       -0.0136
     13 C         137.3232  142.3132  163.2497 C.3     1  UNL1        0.0950
     14 N         137.8774  141.3180  164.2257 N.3     1  UNL1       -0.2935
     15 C         138.9515  141.5150  165.2540 C.3     1  UNL1        0.0735
     16 H         138.2176  140.5521  163.6442 H       1  UNL1        0.1236
@<TRIPOS>BOND
     1     1     2    1
     2     2     3   ar
     3     3     4   ar
     4     4     5   ar
     5     5     9    1
     6     9    10    1
     7    10    11    1
     8    11    12    2
     9    12    13    1
    10    13    14    1
    11    14    15    1
    12     5     6   ar
    13     6     7   ar
    14     7     8    1
    15     7     2   ar
    16    15     9    1
    17    14    16    1
@<TRIPOS>MOLECULE
*****
 16 17 0 0 0
SMALL
GASTEIGER

@<TRIPOS>ATOM
      1 C         143.1183  143.6277  170.9314 C.3     1  UNL1        0.0319
      2 C         142.4935  142.6737  169.9572 C.ar    1  UNL1       -0.0113
      3 C         143.2471  141.4555  169.5121 C.ar    1  UNL1       -0.0037
      4 C         142.6222  140.5013  168.5378 C.ar    1  UNL1       -0.0045
      5 C         141.2437  140.7654  168.0086 C.ar    1  UNL1       -0.0200
      6 C         140.4901  141.9836  168.4537 C.ar    1  UNL1        0.0069
      7 C         141.1149  142.9378  169.4280 C.ar    1  UNL1        0.0534
      8 CL        140.3613  144.1559  169.8731 Cl      1  UNL1       -0.0826
      9 C         140.6188  139.8114  167.0344 C.3     1  UNL1        0.0424
     10 C         139.1405  139.6048  167.1830 C.3     1  UNL1        0.0315
     11 C         138.2330  138.7259  166.3742 C.2     1  UNL1       -0.0289
     12 C         138.5797  137.8365  165.2172 C.2     1  UNL1       -0.0136
     13 C         139.9195  137.6063  164.5831 C.3     1  UNL1        0.0950
     14 N         141.2435  138.2086  164.9495 N.3     1  UNL1       -0.2935
     15 C         141.5546  139.1900  166.0404 C.3     1  UNL1        0.0735
     16 H         141.5608  138.6670  164.0953 H       1  UNL1        0.1236
@<TRIPOS>BOND
     1     1     2    1
     2     2     3   ar
     3     3     4   ar
     4     4     5   ar
     5     5     9    1
     6     9    10    1
     7    10    11    1
     8    11    12    2
     9    12    13    1
    10    13    14    1
    11    14    15    1
    12     5     6   ar
    13     6     7   ar
    14     7     8    1
    15     7     2   ar
    16    15     9    1
    17    14    16    1
@<TRIPOS>MOLECULE
*****
 16 17 0 0 0
SMALL
GASTEIGER

@<TRIPOS>ATOM
      1 C         142.7672  138.7588  170.0287 C.3     1  UNL1        0.0319
      2 C         141.9751  139.5187  169.0065 C.ar    1  UNL1       -0.0113
      3 C         142.5197  139.7033  167.6212 C.ar    1  UNL1       -0.0037
      4 C         141.7274  140.4633  166.5989 C.ar    1  UNL1       -0.0045
      5 C         140.3906  141.0386  166.9622 C.ar    1  UNL1       -0.0200
      6 C         139.8461  140.8541  168.3475 C.ar    1  UNL1        0.0069
      7 C         140.6382  140.0941  169.3698 C.ar    1  UNL1        0.0534
      8 CL        140.0936  139.9095  170.7552 Cl      1  UNL1       -0.0826
      9 C         139.5984  141.7986  165.9400 C.3     1  UNL1        0.0424
     10 C         139.8962  143.2658  165.8451 C.3     1  UNL1        0.0315
     11 C         139.2822  144.2877  164.9346 C.2     1  UNL1       -0.0289
     12 C         138.2190  144.0948  163.8944 C.2     1  UNL1       -0.0136
     13 C         137.5070  142.8325  163.5075 C.3     1  UNL1        0.0950
     14 N         137.6824  141.4512  164.0655 N.3     1  UNL1       -0.2935
     15 C         138.6132  140.9912  165.1481 C.3     1  UNL1        0.0735
     16 H         137.9271  140.8785  163.2577 H       1  UNL1        0.1236
@<TRIPOS>BOND
     1     1     2    1
     2     2     3   ar
     3     3     4   ar
     4     4     5   ar
     5     5     9    1
     6     9    10    1
     7    10    11    1
     8    11    12    2
     9    12    13    1
    10    13    14    1
    11    14    15    1
    12     5     6   ar
    13     6     7   ar
    14     7     8    1
    15     7     2   ar
    16    15     9    1
    17    14    16    1
@<TRIPOS>MOLECULE
*****
 16 17 0 0 0
SMALL
GASTEIGER

@<TRIPOS>ATOM
      1 C         138.4803  140.0943  169.9981 C.3     1  UNL1        0.0319
      2 C         139.5907  140.3199  169.0153 C.ar    1  UNL1       -0.0113
      3 C         140.8200  141.0717  169.4321 C.ar    1  UNL1       -0.0037
      4 C         141.9305  141.2974  168.4492 C.ar    1  UNL1       -0.0045
      5 C         141.8116  140.7713  167.0495 C.ar    1  UNL1       -0.0200
      6 C         140.5824  140.0195  166.6327 C.ar    1  UNL1        0.0069
      7 C         139.4719  139.7938  167.6155 C.ar    1  UNL1        0.0534
      8 CL        138.2427  139.0420  167.1987 Cl      1  UNL1       -0.0826
      9 C         142.9220  140.9970  166.0666 C.3     1  UNL1        0.0424
     10 C         143.3628  142.4209  165.8984 C.3     1  UNL1        0.0315
     11 C         144.4352  142.9684  165.0038 C.2     1  UNL1       -0.0289
     12 C         145.3317  142.2274  164.0568 C.2     1  UNL1       -0.0136
     13 C         145.3773  140.7557  163.7702 C.3     1  UNL1        0.0950
     14 N         144.5375  139.6616  164.3600 N.3     1  UNL1       -0.2935
     15 C         143.4448  139.7691  165.3821 C.3     1  UNL1        0.0735
     16 H         145.2113  139.0168  164.7732 H       1  UNL1        0.1236
@<TRIPOS>BOND
     1     1     2    1
     2     2     3   ar
     3     3     4   ar
     4     4     5   ar
     5     5     9    1
     6     9    10    1
     7    10    11    1
     8    11    12    2
     9    12    13    1
    10    13    14    1
    11    14    15    1
    12     5     6   ar
    13     6     7   ar
    14     7     8    1
    15     7     2   ar
    16    15     9    1
    17    14    16    1
@<TRIPOS>MOLECULE
*****
 16 17 0 0 0
SMALL
GASTEIGER

@<TRIPOS>ATOM
      1 C         142.4220  140.1089  170.3137 C.3     1  UNL1        0.0319
      2 C         141.7203  139.9222  169.0012 C.ar    1  UNL1       -0.0113
      3 C         142.5044  139.5502  167.7778 C.ar    1  UNL1       -0.0037
      4 C         141.8027  139.3635  166.4652 C.ar    1  UNL1       -0.0045
      5 C         140.3169  139.5488  166.3761 C.ar    1  UNL1       -0.0200
      6 C         139.5327  139.9208  167.5995 C.ar    1  UNL1        0.0069
      7 C         140.2344  140.1075  168.9121 C.ar    1  UNL1        0.0534
      8 CL        139.4503  140.4795  170.1355 Cl      1  UNL1       -0.0826
      9 C         139.6151  139.3621  165.0636 C.3     1  UNL1        0.0424
     10 C         139.8658  138.0549  164.3718 C.3     1  UNL1        0.0315
     11 C         139.3188  137.5701  163.0619 C.2     1  UNL1       -0.0289
     12 C         138.3860  138.2725  162.1205 C.2     1  UNL1       -0.0136
     13 C         137.7698  139.6334  162.2563 C.3     1  UNL1        0.0950
     14 N         137.9343  140.6278  163.3671 N.3     1  UNL1       -0.2935
     15 C         138.7555  140.5070  164.6165 C.3     1  UNL1        0.0735
     16 H         136.9854  140.7978  163.7005 H       1  UNL1        0.1236
@<TRIPOS>BOND
     1     1     2    1
     2     2     3   ar
     3     3     4   ar
     4     4     5   ar
     5     5     9    1
     6     9    10    1
     7    10    11    1
     8    11    12    2
     9    12    13    1
    10    13    14    1
    11    14    15    1
    12     5     6   ar
    13     6     7   ar
    14     7     8    1
    15     7     2   ar
    16    15     9    1
    17    14    16    1
@<TRIPOS>MOLECULE
*****
 16 17 0 0 0
SMALL
GASTEIGER

@<TRIPOS>ATOM
      1 C         138.8645  137.5642  163.3944 C.3     1  UNL1        0.0319
      2 C         139.4289  138.3094  164.5674 C.ar    1  UNL1       -0.0113
      3 C         138.5075  138.9457  165.5655 C.ar    1  UNL1       -0.0037
      4 C         139.0719  139.6909  166.7387 C.ar    1  UNL1       -0.0045
      5 C         140.5577  139.7998  166.9136 C.ar    1  UNL1       -0.0200
      6 C         141.4791  139.1636  165.9155 C.ar    1  UNL1        0.0069
      7 C         140.9147  138.4183  164.7424 C.ar    1  UNL1        0.0534
      8 CL        141.8361  137.7820  163.7443 Cl      1  UNL1       -0.0826
      9 C         141.1221  140.5450  168.0867 C.3     1  UNL1        0.0424
     10 C         142.2738  141.4576  167.7849 C.3     1  UNL1        0.0315
     11 C         143.0481  142.3297  168.7283 C.2     1  UNL1       -0.0289
     12 C         142.8620  142.5046  170.2063 C.2     1  UNL1       -0.0136
     13 C         141.8557  141.8506  171.1062 C.3     1  UNL1        0.0950
     14 N         140.7869  140.8602  170.7501 N.3     1  UNL1       -0.2935
     15 C         140.4605  140.2792  169.4062 C.3     1  UNL1        0.0735
     16 H         139.9189  141.2999  171.0560 H       1  UNL1        0.1236
@<TRIPOS>BOND
     1     1     2    1
     2     2     3   ar
     3     3     4   ar
     4     4     5   ar
     5     5     9    1
     6     9    10    1
     7    10    11    1
     8    11    12    2
     9    12    13    1
    10    13    14    1
    11    14    15    1
    12     5     6   ar
    13     6     7   ar
    14     7     8    1
    15     7     2   ar
    16    15     9    1
    17    14    16    1
@<TRIPOS>MOLECULE
*****
 16 17 0 0 0
SMALL
GASTEIGER

@<TRIPOS>ATOM
      1 C         137.7657  138.7362  161.6991 C.3     1  UNL1        0.0319
      2 C         138.3780  138.9842  163.0457 C.ar    1  UNL1       -0.0113
      3 C         139.2411  137.9352  163.6819 C.ar    1  UNL1       -0.0037
      4 C         139.8534  138.1832  165.0286 C.ar    1  UNL1       -0.0045
      5 C         139.6028  139.4803  165.7390 C.ar    1  UNL1       -0.0200
      6 C         138.7397  140.5293  165.1029 C.ar    1  UNL1        0.0069
      7 C         138.1274  140.2813  163.7562 C.ar    1  UNL1        0.0534
      8 CL        137.2643  141.3303  163.1200 Cl      1  UNL1       -0.0826
      9 C         140.2151  139.7284  167.0857 C.3     1  UNL1        0.0424
     10 C         139.2486  140.0057  168.1989 C.3     1  UNL1        0.0315
     11 C         139.5412  140.2895  169.6425 C.2     1  UNL1       -0.0289
     12 C         140.8725  140.3660  170.3293 C.2     1  UNL1       -0.0136
     13 C         142.2400  140.1777  169.7424 C.3     1  UNL1        0.0950
     14 N         142.6139  139.8663  168.3235 N.3     1  UNL1       -0.2935
     15 C         141.7127  139.6663  167.1412 C.3     1  UNL1        0.0735
     16 H         143.1508  139.0012  168.3847 H       1  UNL1        0.1236
@<TRIPOS>BOND
     1     1     2    1
     2     2     3   ar
     3     3     4   ar
     4     4     5   ar
     5     5     9    1
     6     9    10    1
     7    10    11    1
     8    11    12    2
     9    12    13    1
    10    13    14    1
    11    14    15    1
    12     5     6   ar
    13     6     7   ar
    14     7     8    1
    15     7     2   ar
    16    15     9    1
    17    14    16    1
@<TRIPOS>MOLECULE
*****
 16 17 0 0 0
SMALL
GASTEIGER

@<TRIPOS>ATOM
      1 C         141.2336  145.1866  162.8557 C.3     1  UNL1        0.0319
      2 C         141.2664  144.2737  164.0454 C.ar    1  UNL1       -0.0113
      3 C         142.5250  143.5333  164.3882 C.ar    1  UNL1       -0.0037
      4 C         142.5577  142.6204  165.5781 C.ar    1  UNL1       -0.0045
      5 C         141.3318  142.4479  166.4250 C.ar    1  UNL1       -0.0200
      6 C         140.0732  143.1884  166.0822 C.ar    1  UNL1        0.0069
      7 C         140.0404  144.1013  164.8924 C.ar    1  UNL1        0.0534
      8 CL        138.7817  144.8417  164.5496 Cl      1  UNL1       -0.0826
      9 C         141.3645  141.5351  167.6148 C.3     1  UNL1        0.0424
     10 C         140.1882  141.6306  168.5408 C.3     1  UNL1        0.0315
     11 C         139.9260  140.8620  169.8021 C.2     1  UNL1       -0.0289
     12 C         140.7752  139.8082  170.4486 C.2     1  UNL1       -0.0136
     13 C         142.0963  139.2625  169.9939 C.3     1  UNL1        0.0950
     14 N         142.8946  139.6360  168.7801 N.3     1  UNL1       -0.2935
     15 C         142.5688  140.6474  167.7213 C.3     1  UNL1        0.0735
     16 H         143.0091  138.7601  168.2701 H       1  UNL1        0.1236
@<TRIPOS>BOND
     1     1     2    1
     2     2     3   ar
     3     3     4   ar
     4     4     5   ar
     5     5     9    1
     6     9    10    1
     7    10    11    1
     8    11    12    2
     9    12    13    1
    10    13    14    1
    11    14    15    1
    12     5     6   ar
    13     6     7   ar
    14     7     8    1
    15     7     2   ar
    16    15     9    1
    17    14    16    1
@<TRIPOS>MOLECULE
*****
 16 17 0 0 0
SMALL
GASTEIGER

@<TRIPOS>ATOM
      1 C         137.2310  141.5585  163.0205 C.3     1  UNL1        0.0319
      2 C         138.1624  141.4542  164.1916 C.ar    1  UNL1       -0.0113
      3 C         138.4282  140.1193  164.8218 C.ar    1  UNL1       -0.0037
      4 C         139.3597  140.0149  165.9930 C.ar    1  UNL1       -0.0045
      5 C         140.0253  141.2456  166.5338 C.ar    1  UNL1       -0.0200
      6 C         139.7595  142.5805  165.9035 C.ar    1  UNL1        0.0069
      7 C         138.8280  142.6849  164.7324 C.ar    1  UNL1        0.0534
      8 CL        138.5622  144.0198  164.1021 Cl      1  UNL1       -0.0826
      9 C         140.9568  141.1413  167.7049 C.3     1  UNL1        0.0424
     10 C         142.0725  142.1434  167.7402 C.3     1  UNL1        0.0315
     11 C         143.1564  142.3004  168.7653 C.2     1  UNL1       -0.0289
     12 C         143.3922  141.4943  170.0079 C.2     1  UNL1       -0.0136
     13 C         142.6025  140.3320  170.5327 C.3     1  UNL1        0.0950
     14 N         141.3819  139.6887  169.9443 N.3     1  UNL1       -0.2935
     15 C         140.6495  140.0490  168.6858 C.3     1  UNL1        0.0735
     16 H         140.6774  139.7580  170.6787 H       1  UNL1        0.1236
@<TRIPOS>BOND
     1     1     2    1
     2     2     3   ar
     3     3     4   ar
     4     4     5   ar
     5     5     9    1
     6     9    10    1
     7    10    11    1
     8    11    12    2
     9    12    13    1
    10    13    14    1
    11    14    15    1
    12     5     6   ar
    13     6     7   ar
    14     7     8    1
    15     7     2   ar
    16    15     9    1
    17    14    16    1
