@<TRIPOS>MOLECULE
*****
 28 29 0 0 0
SMALL
GASTEIGER

@<TRIPOS>ATOM
      1 N         139.6983  143.9075  158.7529 N.3     1  UNL1       -0.2651
      2 C         138.7681  142.7679  159.0461 C.3     1  UNL1        0.0726
      3 C         137.8963  142.2128  157.9590 C.3     1  UNL1        0.0191
      4 C         137.9546  142.7973  156.5788 C.3     1  UNL1        0.0224
      5 C         138.8848  143.9369  156.2857 C.3     1  UNL1        0.0191
      6 C         139.7567  144.4920  157.3728 C.3     1  UNL1        0.0726
      7 C         140.5702  144.4627  159.8400 C.3     1  UNL1        0.1584
      8 N         139.9153  143.9252  162.2960 N.am    1  UNL1       -0.3063
      9 C         139.9639  144.8859  161.1451 C.2     1  UNL1        0.2388
     10 O         139.4062  146.2698  161.2992 O.2     1  UNL1       -0.2736
     11 H         140.2813  143.0169  162.1949 H       1  UNL1        0.1493
     12 C         140.6639  144.7573  164.0980 C.3     1  UNL1        0.0196
     13 C         139.3089  144.3485  163.6011 C.3     1  UNL1        0.0569
     14 C         137.9540  143.9396  163.1043 C.3     1  UNL1        0.0196
     15 C         138.7026  144.7717  164.9062 C.3     1  UNL1        0.0196
     16 C         137.0828  142.2422  155.4918 C.3     1  UNL1        0.0897
     17 N         135.6058  142.1024  155.7128 N.am    1  UNL1       -0.3009
     18 C         134.9895  140.7393  155.8227 C.2     1  UNL1        0.2459
     19 O         135.8502  139.5159  155.7115 O.2     1  UNL1       -0.2701
     20 H         135.0408  142.9054  155.7858 H       1  UNL1        0.1497
     21 C         133.5124  140.5996  156.0438 C.ar    1  UNL1        0.0550
     22 C         132.5546  141.4656  155.2805 C.ar    1  UNL1        0.0160
     23 C         131.0775  141.3259  155.5016 C.ar    1  UNL1        0.0587
     24 CL        130.1197  142.1919  154.7384 Cl      1  UNL1       -0.0822
     25 C         130.5584  140.3201  156.4860 C.ar    1  UNL1        0.0228
     26 C         131.5163  139.4541  157.2492 C.ar    1  UNL1        0.0587
     27 CL        130.9971  138.4484  158.2336 Cl      1  UNL1       -0.0822
     28 C         132.9932  139.5938  157.0281 C.ar    1  UNL1        0.0160
@<TRIPOS>BOND
     1    12    13    1
     2    13    14    1
     3    13    15    1
     4    13     8    1
     5     8     9   am
     6     9    10    2
     7     9     7    1
     8     7     1    1
     9     1     2    1
    10     2     3    1
    11     3     4    1
    12     4    16    1
    13    16    17    1
    14    17    18   am
    15    18    19    2
    16    18    21    1
    17    21    22   ar
    18    22    23   ar
    19    23    24    1
    20    23    25   ar
    21    25    26   ar
    22    26    27    1
    23    26    28   ar
    24     4     5    1
    25     5     6    1
    26     6     1    1
    27    28    21   ar
    28     8    11    1
    29    17    20    1
@<TRIPOS>MOLECULE
*****
 28 29 0 0 0
SMALL
GASTEIGER

@<TRIPOS>ATOM
      1 N         142.4725  136.0768  156.3320 N.3     1  UNL1       -0.2651
      2 C         141.0990  136.2615  155.7581 C.3     1  UNL1        0.0726
      3 C         140.1494  137.2389  156.3851 C.3     1  UNL1        0.0191
      4 C         140.5733  138.0315  157.5859 C.3     1  UNL1        0.0224
      5 C         141.9468  137.8468  158.1598 C.3     1  UNL1        0.0191
      6 C         142.8964  136.8694  157.5328 C.3     1  UNL1        0.0726
      7 C         143.4220  135.0994  155.7051 C.3     1  UNL1        0.1584
      8 N         144.7416  132.8995  156.1163 N.am    1  UNL1       -0.3063
      9 C         143.4619  133.6790  156.1854 C.2     1  UNL1        0.2388
     10 O         142.2221  133.0380  156.7349 O.2     1  UNL1       -0.2736
     11 H         145.5554  133.3202  155.7556 H       1  UNL1        0.1493
     12 C         145.2009  131.9510  157.9572 C.3     1  UNL1        0.0196
     13 C         144.7815  131.4790  156.5966 C.3     1  UNL1        0.0569
     14 C         144.3621  131.0071  155.2360 C.3     1  UNL1        0.0196
     15 C         144.8213  130.0586  157.0770 C.3     1  UNL1        0.0196
     16 C         139.6237  139.0089  158.2128 C.3     1  UNL1        0.0897
     17 N         139.5997  139.1809  159.7027 N.am    1  UNL1       -0.3009
     18 C         138.3301  139.5871  160.3905 C.2     1  UNL1        0.2459
     19 O         137.0844  139.8213  159.5883 O.2     1  UNL1       -0.2701
     20 H         140.4173  139.0272  160.2292 H       1  UNL1        0.1497
     21 C         138.3061  139.7592  161.8804 C.ar    1  UNL1        0.0550
     22 C         137.9850  141.0980  162.4758 C.ar    1  UNL1        0.0160
     23 C         137.9610  141.2700  163.9657 C.ar    1  UNL1        0.0587
     24 CL        137.6399  142.6088  164.5611 Cl      1  UNL1       -0.0822
     25 C         138.2582  140.1032  164.8603 C.ar    1  UNL1        0.0228
     26 C         138.5794  138.7643  164.2649 C.ar    1  UNL1        0.0587
     27 CL        138.8766  137.5975  165.1594 Cl      1  UNL1       -0.0822
     28 C         138.6033  138.5923  162.7750 C.ar    1  UNL1        0.0160
@<TRIPOS>BOND
     1    12    13    1
     2    13    14    1
     3    13    15    1
     4    13     8    1
     5     8     9   am
     6     9    10    2
     7     9     7    1
     8     7     1    1
     9     1     2    1
    10     2     3    1
    11     3     4    1
    12     4    16    1
    13    16    17    1
    14    17    18   am
    15    18    19    2
    16    18    21    1
    17    21    22   ar
    18    22    23   ar
    19    23    24    1
    20    23    25   ar
    21    25    26   ar
    22    26    27    1
    23    26    28   ar
    24     4     5    1
    25     5     6    1
    26     6     1    1
    27    28    21   ar
    28     8    11    1
    29    17    20    1
@<TRIPOS>MOLECULE
*****
 28 29 0 0 0
SMALL
GASTEIGER

@<TRIPOS>ATOM
      1 N         142.3100  136.0651  156.1525 N.3     1  UNL1       -0.2651
      2 C         140.9298  136.2811  155.6065 C.3     1  UNL1        0.0726
      3 C         140.0117  137.2718  156.2587 C.3     1  UNL1        0.0191
      4 C         140.4739  138.0467  157.4571 C.3     1  UNL1        0.0224
      5 C         141.8541  137.8307  158.0031 C.3     1  UNL1        0.0191
      6 C         142.7722  136.8399  157.3508 C.3     1  UNL1        0.0726
      7 C         143.2281  135.0743  155.5002 C.3     1  UNL1        0.1584
      8 N         144.6545  132.9872  156.0995 N.am    1  UNL1       -0.3063
      9 C         143.3235  133.6758  156.0340 C.2     1  UNL1        0.2388
     10 O         142.0879  132.9659  156.5024 O.2     1  UNL1       -0.2736
     11 H         145.4655  133.4531  155.7921 H       1  UNL1        0.1493
     12 C         144.3531  131.0492  155.2911 C.3     1  UNL1        0.0196
     13 C         144.7499  131.5886  156.6333 C.3     1  UNL1        0.0569
     14 C         145.1466  132.1279  157.9756 C.3     1  UNL1        0.0196
     15 C         144.8452  130.1900  157.1671 C.3     1  UNL1        0.0196
     16 C         139.5558  139.0374  158.1093 C.3     1  UNL1        0.0897
     17 N         139.5579  139.1927  159.6012 N.am    1  UNL1       -0.3009
     18 C         138.3027  139.5995  160.3148 C.2     1  UNL1        0.2459
     19 O         137.0455  139.8511  159.5364 O.2     1  UNL1       -0.2701
     20 H         140.3831  139.0276  160.1121 H       1  UNL1        0.1497
     21 C         138.3049  139.7547  161.8068 C.ar    1  UNL1        0.0550
     22 C         138.6515  138.5868  162.6818 C.ar    1  UNL1        0.0160
     23 C         138.6537  138.7421  164.1738 C.ar    1  UNL1        0.0587
     24 CL        139.0003  137.5741  165.0489 Cl      1  UNL1       -0.0822
     25 C         138.3093  140.0653  164.7907 C.ar    1  UNL1        0.0228
     26 C         137.9627  141.2332  163.9155 C.ar    1  UNL1        0.0587
     27 CL        137.6183  142.5565  164.5324 Cl      1  UNL1       -0.0822
     28 C         137.9605  141.0780  162.4236 C.ar    1  UNL1        0.0160
@<TRIPOS>BOND
     1    12    13    1
     2    13    14    1
     3    13    15    1
     4    13     8    1
     5     8     9   am
     6     9    10    2
     7     9     7    1
     8     7     1    1
     9     1     2    1
    10     2     3    1
    11     3     4    1
    12     4    16    1
    13    16    17    1
    14    17    18   am
    15    18    19    2
    16    18    21    1
    17    21    22   ar
    18    22    23   ar
    19    23    24    1
    20    23    25   ar
    21    25    26   ar
    22    26    27    1
    23    26    28   ar
    24     4     5    1
    25     5     6    1
    26     6     1    1
    27    28    21   ar
    28     8    11    1
    29    17    20    1
@<TRIPOS>MOLECULE
*****
 28 29 0 0 0
SMALL
GASTEIGER

@<TRIPOS>ATOM
      1 N         139.7544  142.5318  164.9941 N.3     1  UNL1       -0.2651
      2 C         140.9152  142.5569  164.0445 C.3     1  UNL1        0.0726
      3 C         141.0630  143.6881  163.0705 C.3     1  UNL1        0.0191
      4 C         140.0501  144.7941  163.0462 C.3     1  UNL1        0.0224
      5 C         138.8893  144.7689  163.9959 C.3     1  UNL1        0.0191
      6 C         138.7414  143.6378  164.9698 C.3     1  UNL1        0.0726
      7 C         139.6066  141.4006  165.9681 C.3     1  UNL1        0.1584
      8 N         141.0488  142.6987  167.6957 N.am    1  UNL1       -0.3063
      9 C         140.2715  141.4750  167.3105 C.2     1  UNL1        0.2388
     10 O         140.1592  140.3257  168.2679 O.2     1  UNL1       -0.2736
     11 H         141.1226  143.4530  167.0674 H       1  UNL1        0.1493
     12 C         140.4825  143.4084  169.6129 C.3     1  UNL1        0.0196
     13 C         141.7138  142.7731  169.0382 C.3     1  UNL1        0.0569
     14 C         142.9451  142.1378  168.4636 C.3     1  UNL1        0.0196
     15 C         142.3787  142.8475  170.3807 C.3     1  UNL1        0.0196
     16 C         140.1979  145.9253  162.0723 C.3     1  UNL1        0.0897
     17 N         139.7000  145.7736  160.6655 N.am    1  UNL1       -0.3009
     18 C         140.6262  145.2876  159.5904 C.2     1  UNL1        0.2459
     19 O         142.0503  144.9531  159.9220 O.2     1  UNL1       -0.2701
     20 H         138.7653  145.9931  160.4478 H       1  UNL1        0.1497
     21 C         140.1282  145.1359  158.1835 C.ar    1  UNL1        0.0550
     22 C         139.6192  143.8078  157.7071 C.ar    1  UNL1        0.0160
     23 C         139.1212  143.6562  156.3003 C.ar    1  UNL1        0.0587
     24 CL        138.6123  142.3281  155.8239 Cl      1  UNL1       -0.0822
     25 C         139.1323  144.8327  155.3699 C.ar    1  UNL1        0.0228
     26 C         139.6413  146.1609  155.8464 C.ar    1  UNL1        0.0587
     27 CL        139.6523  147.3375  154.9160 Cl      1  UNL1       -0.0822
     28 C         140.1392  146.3125  157.2532 C.ar    1  UNL1        0.0160
@<TRIPOS>BOND
     1    12    13    1
     2    13    14    1
     3    13    15    1
     4    13     8    1
     5     8     9   am
     6     9    10    2
     7     9     7    1
     8     7     1    1
     9     1     2    1
    10     2     3    1
    11     3     4    1
    12     4    16    1
    13    16    17    1
    14    17    18   am
    15    18    19    2
    16    18    21    1
    17    21    22   ar
    18    22    23   ar
    19    23    24    1
    20    23    25   ar
    21    25    26   ar
    22    26    27    1
    23    26    28   ar
    24     4     5    1
    25     5     6    1
    26     6     1    1
    27    28    21   ar
    28     8    11    1
    29    17    20    1
@<TRIPOS>MOLECULE
*****
 28 29 0 0 0
SMALL
GASTEIGER

@<TRIPOS>ATOM
      1 N         139.7617  142.5026  165.0049 N.3     1  UNL1       -0.2651
      2 C         140.7711  142.4142  163.8989 C.3     1  UNL1        0.0726
      3 C         140.9130  143.5428  162.9211 C.3     1  UNL1        0.0191
      4 C         140.0455  144.7597  163.0492 C.3     1  UNL1        0.0224
      5 C         139.0361  144.8481  164.1552 C.3     1  UNL1        0.0191
      6 C         138.8942  143.7195  165.1331 C.3     1  UNL1        0.0726
      7 C         139.6199  141.3740  165.9828 C.3     1  UNL1        0.1584
      8 N         141.1013  142.6590  167.6869 N.am    1  UNL1       -0.3063
      9 C         140.2448  141.4767  167.3425 C.2     1  UNL1        0.2388
     10 O         140.0133  140.3971  168.3579 O.2     1  UNL1       -0.2736
     11 H         141.2533  143.3676  167.0205 H       1  UNL1        0.1493
     12 C         140.5091  143.4778  169.5520 C.3     1  UNL1        0.0196
     13 C         141.7263  142.7617  169.0467 C.3     1  UNL1        0.0569
     14 C         142.9436  142.0456  168.5413 C.3     1  UNL1        0.0196
     15 C         142.3512  142.8644  170.4064 C.3     1  UNL1        0.0196
     16 C         140.1873  145.8883  162.0714 C.3     1  UNL1        0.0897
     17 N         139.6885  145.7299  160.6657 N.am    1  UNL1       -0.3009
     18 C         140.6291  145.2973  159.5803 C.2     1  UNL1        0.2459
     19 O         142.0686  145.0231  159.9006 O.2     1  UNL1       -0.2701
     20 H         138.7437  145.9098  160.4554 H       1  UNL1        0.1497
     21 C         140.1302  145.1389  158.1746 C.ar    1  UNL1        0.0550
     22 C         140.1755  146.3009  157.2272 C.ar    1  UNL1        0.0160
     23 C         139.6765  146.1425  155.8215 C.ar    1  UNL1        0.0587
     24 CL        139.7218  147.3046  154.8742 Cl      1  UNL1       -0.0822
     25 C         139.1324  144.8220  155.3631 C.ar    1  UNL1        0.0228
     26 C         139.0872  143.6599  156.3105 C.ar    1  UNL1        0.0587
     27 CL        138.5430  142.3393  155.8522 Cl      1  UNL1       -0.0822
     28 C         139.5861  143.8183  157.7162 C.ar    1  UNL1        0.0160
@<TRIPOS>BOND
     1    12    13    1
     2    13    14    1
     3    13    15    1
     4    13     8    1
     5     8     9   am
     6     9    10    2
     7     9     7    1
     8     7     1    1
     9     1     2    1
    10     2     3    1
    11     3     4    1
    12     4    16    1
    13    16    17    1
    14    17    18   am
    15    18    19    2
    16    18    21    1
    17    21    22   ar
    18    22    23   ar
    19    23    24    1
    20    23    25   ar
    21    25    26   ar
    22    26    27    1
    23    26    28   ar
    24     4     5    1
    25     5     6    1
    26     6     1    1
    27    28    21   ar
    28     8    11    1
    29    17    20    1
@<TRIPOS>MOLECULE
*****
 28 29 0 0 0
SMALL
GASTEIGER

@<TRIPOS>ATOM
      1 N         144.1704  141.5656  160.0690 N.3     1  UNL1       -0.2651
      2 C         144.8272  142.4420  161.0939 C.3     1  UNL1        0.0726
      3 C         145.0808  141.9187  162.4766 C.3     1  UNL1        0.0191
      4 C         144.6775  140.5190  162.8345 C.3     1  UNL1        0.0224
      5 C         144.0207  139.6426  161.8096 C.3     1  UNL1        0.0191
      6 C         143.7671  140.1658  160.4269 C.3     1  UNL1        0.0726
      7 C         143.9168  142.0888  158.6863 C.3     1  UNL1        0.1584
      8 N         145.5686  142.8633  156.8366 N.am    1  UNL1       -0.3063
      9 C         144.8682  141.7608  157.5741 C.2     1  UNL1        0.2388
     10 O         145.1193  140.3301  157.1993 O.2     1  UNL1       -0.2736
     11 H         145.4039  143.8022  157.0825 H       1  UNL1        0.1493
     12 C         147.6618  142.5487  156.6970 C.3     1  UNL1        0.0196
     13 C         146.5201  142.5351  155.7243 C.3     1  UNL1        0.0569
     14 C         145.3784  142.5215  154.7516 C.3     1  UNL1        0.0196
     15 C         147.4716  142.2070  154.6121 C.3     1  UNL1        0.0196
     16 C         144.9311  139.9958  164.2172 C.3     1  UNL1        0.0897
     17 N         143.7784  139.7001  165.1303 N.am    1  UNL1       -0.3009
     18 C         143.0667  140.8218  165.8271 C.2     1  UNL1        0.2459
     19 O         143.5078  142.2390  165.6107 O.2     1  UNL1       -0.2701
     20 H         143.4889  138.7699  165.2723 H       1  UNL1        0.1497
     21 C         141.9140  140.5261  166.7403 C.ar    1  UNL1        0.0550
     22 C         140.6084  140.0548  166.1716 C.ar    1  UNL1        0.0160
     23 C         139.4557  139.7591  167.0848 C.ar    1  UNL1        0.0587
     24 CL        138.1501  139.2879  166.5161 Cl      1  UNL1       -0.0822
     25 C         139.6086  139.9347  168.5666 C.ar    1  UNL1        0.0228
     26 C         140.9142  140.4059  169.1353 C.ar    1  UNL1        0.0587
     27 CL        141.0671  140.5815  170.6171 Cl      1  UNL1       -0.0822
     28 C         142.0669  140.7016  168.2221 C.ar    1  UNL1        0.0160
@<TRIPOS>BOND
     1    12    13    1
     2    13    14    1
     3    13    15    1
     4    13     8    1
     5     8     9   am
     6     9    10    2
     7     9     7    1
     8     7     1    1
     9     1     2    1
    10     2     3    1
    11     3     4    1
    12     4    16    1
    13    16    17    1
    14    17    18   am
    15    18    19    2
    16    18    21    1
    17    21    22   ar
    18    22    23   ar
    19    23    24    1
    20    23    25   ar
    21    25    26   ar
    22    26    27    1
    23    26    28   ar
    24     4     5    1
    25     5     6    1
    26     6     1    1
    27    28    21   ar
    28     8    11    1
    29    17    20    1
@<TRIPOS>MOLECULE
*****
 28 29 0 0 0
SMALL
GASTEIGER

@<TRIPOS>ATOM
      1 N         143.0324  138.4332  158.3373 N.3     1  UNL1       -0.2651
      2 C         142.9052  137.4953  159.5009 C.3     1  UNL1        0.0726
      3 C         143.2241  137.9721  160.8869 C.3     1  UNL1        0.0191
      4 C         143.6702  139.3868  161.1092 C.3     1  UNL1        0.0224
      5 C         143.7975  140.3247  159.9456 C.3     1  UNL1        0.0191
      6 C         143.4785  139.8479  158.5596 C.3     1  UNL1        0.0726
      7 C         142.7135  137.9565  156.9513 C.3     1  UNL1        0.1584
      8 N         142.6107  135.3840  156.6023 N.am    1  UNL1       -0.3063
      9 C         143.3286  136.6902  156.4336 C.2     1  UNL1        0.2388
     10 O         144.6619  136.7300  155.7473 O.2     1  UNL1       -0.2736
     11 H         141.7357  135.3578  157.0527 H       1  UNL1        0.1493
     12 C         143.8097  133.8474  157.4396 C.3     1  UNL1        0.0196
     13 C         143.2259  134.1177  156.0846 C.3     1  UNL1        0.0569
     14 C         142.6422  134.3880  154.7295 C.3     1  UNL1        0.0196
     15 C         143.8412  132.8514  155.5669 C.3     1  UNL1        0.0196
     16 C         143.9892  139.8636  162.4952 C.3     1  UNL1        0.0897
     17 N         142.8926  140.0139  163.5075 N.am    1  UNL1       -0.3009
     18 C         143.0620  139.4483  164.8864 C.2     1  UNL1        0.2459
     19 O         144.3280  138.7323  165.2530 O.2     1  UNL1       -0.2701
     20 H         142.0616  140.4839  163.2669 H       1  UNL1        0.1497
     21 C         141.9653  139.5987  165.8988 C.ar    1  UNL1        0.0550
     22 C         140.5361  139.3933  165.4923 C.ar    1  UNL1        0.0160
     23 C         139.4394  139.5437  166.5047 C.ar    1  UNL1        0.0587
     24 CL        138.0103  139.3383  166.0982 Cl      1  UNL1       -0.0822
     25 C         139.7720  139.8995  167.9234 C.ar    1  UNL1        0.0228
     26 C         141.2013  140.1049  168.3298 C.ar    1  UNL1        0.0587
     27 CL        141.5339  140.4607  169.7485 Cl      1  UNL1       -0.0822
     28 C         142.2979  139.9545  167.3175 C.ar    1  UNL1        0.0160
@<TRIPOS>BOND
     1    12    13    1
     2    13    14    1
     3    13    15    1
     4    13     8    1
     5     8     9   am
     6     9    10    2
     7     9     7    1
     8     7     1    1
     9     1     2    1
    10     2     3    1
    11     3     4    1
    12     4    16    1
    13    16    17    1
    14    17    18   am
    15    18    19    2
    16    18    21    1
    17    21    22   ar
    18    22    23   ar
    19    23    24    1
    20    23    25   ar
    21    25    26   ar
    22    26    27    1
    23    26    28   ar
    24     4     5    1
    25     5     6    1
    26     6     1    1
    27    28    21   ar
    28     8    11    1
    29    17    20    1
@<TRIPOS>MOLECULE
*****
 28 29 0 0 0
SMALL
GASTEIGER

@<TRIPOS>ATOM
      1 N         143.3301  142.8383  159.5901 N.3     1  UNL1       -0.2651
      2 C         144.4600  142.5007  160.5169 C.3     1  UNL1        0.0726
      3 C         144.4009  142.9205  161.9558 C.3     1  UNL1        0.0191
      4 C         143.2118  143.6779  162.4678 C.3     1  UNL1        0.0224
      5 C         142.0818  144.0156  161.5410 C.3     1  UNL1        0.0191
      6 C         142.1409  143.5958  160.1021 C.3     1  UNL1        0.0726
      7 C         143.3892  142.4186  158.1513 C.3     1  UNL1        0.1584
      8 N         145.6031  142.9568  156.9027 N.am    1  UNL1       -0.3063
      9 C         144.6884  141.9633  157.5556 C.2     1  UNL1        0.2388
     10 O         145.0729  140.5145  157.6128 O.2     1  UNL1       -0.2736
     11 H         145.3507  143.9077  156.8651 H       1  UNL1        0.1493
     12 C         147.6288  142.9718  157.5321 C.3     1  UNL1        0.0196
     13 C         146.9023  142.5015  156.3070 C.3     1  UNL1        0.0569
     14 C         146.1758  142.0312  155.0819 C.3     1  UNL1        0.0196
     15 C         148.2015  142.0463  155.7114 C.3     1  UNL1        0.0196
     16 C         143.1526  144.0977  163.9066 C.3     1  UNL1        0.0897
     17 N         142.6106  143.1562  164.9409 N.am    1  UNL1       -0.3009
     18 C         141.1432  143.1474  165.2517 C.2     1  UNL1        0.2459
     19 O         140.2178  144.0801  164.5282 O.2     1  UNL1       -0.2701
     20 H         143.2180  142.5440  165.4158 H       1  UNL1        0.1497
     21 C         140.6012  142.2058  166.2860 C.ar    1  UNL1        0.0550
     22 C         140.8599  142.4609  167.7414 C.ar    1  UNL1        0.0160
     23 C         140.3179  141.5193  168.7757 C.ar    1  UNL1        0.0587
     24 CL        140.5766  141.7743  170.2310 Cl      1  UNL1       -0.0822
     25 C         139.5173  140.3227  168.3546 C.ar    1  UNL1        0.0228
     26 C         139.2587  140.0677  166.8992 C.ar    1  UNL1        0.0587
     27 CL        138.4581  138.8712  166.4781 Cl      1  UNL1       -0.0822
     28 C         139.8006  141.0093  165.8650 C.ar    1  UNL1        0.0160
@<TRIPOS>BOND
     1    12    13    1
     2    13    14    1
     3    13    15    1
     4    13     8    1
     5     8     9   am
     6     9    10    2
     7     9     7    1
     8     7     1    1
     9     1     2    1
    10     2     3    1
    11     3     4    1
    12     4    16    1
    13    16    17    1
    14    17    18   am
    15    18    19    2
    16    18    21    1
    17    21    22   ar
    18    22    23   ar
    19    23    24    1
    20    23    25   ar
    21    25    26   ar
    22    26    27    1
    23    26    28   ar
    24     4     5    1
    25     5     6    1
    26     6     1    1
    27    28    21   ar
    28     8    11    1
    29    17    20    1
@<TRIPOS>MOLECULE
*****
 28 29 0 0 0
SMALL
GASTEIGER

@<TRIPOS>ATOM
      1 N         143.9817  139.6531  161.3522 N.3     1  UNL1       -0.2651
      2 C         143.9009  140.4970  160.1148 C.3     1  UNL1        0.0726
      3 C         143.3532  139.9158  158.8450 C.3     1  UNL1        0.0191
      4 C         142.8863  138.4907  158.8126 C.3     1  UNL1        0.0224
      5 C         142.9671  137.6468  160.0500 C.3     1  UNL1        0.0191
      6 C         143.5148  138.2280  161.3198 C.3     1  UNL1        0.0726
      7 C         144.5294  140.2342  162.6219 C.3     1  UNL1        0.1584
      8 N         144.7503  142.7370  163.2830 N.am    1  UNL1       -0.3063
      9 C         143.9300  141.4844  163.1943 C.2     1  UNL1        0.2388
     10 O         142.5101  141.4819  163.6781 O.2     1  UNL1       -0.2736
     11 H         145.6822  142.7387  162.9655 H       1  UNL1        0.1493
     12 C         144.5869  143.5679  165.2280 C.3     1  UNL1        0.0196
     13 C         144.1507  143.9872  163.8554 C.3     1  UNL1        0.0569
     14 C         143.7145  144.4066  162.4829 C.3     1  UNL1        0.0196
     15 C         143.5512  145.2373  164.4279 C.3     1  UNL1        0.0196
     16 C         142.3386  137.9096  157.5429 C.3     1  UNL1        0.0897
     17 N         142.1724  136.4250  157.4081 N.am    1  UNL1       -0.3009
     18 C         143.1643  135.6284  156.6134 C.2     1  UNL1        0.2459
     19 O         144.3224  136.3164  155.9535 O.2     1  UNL1       -0.2701
     20 H         141.4123  135.9734  157.8412 H       1  UNL1        0.1497
     21 C         142.9981  134.1436  156.4786 C.ar    1  UNL1        0.0550
     22 C         141.9224  133.5866  155.5940 C.ar    1  UNL1        0.0160
     23 C         141.7561  132.1019  155.4592 C.ar    1  UNL1        0.0587
     24 CL        140.6804  131.5449  154.5747 Cl      1  UNL1       -0.0822
     25 C         142.6657  131.1743  156.2090 C.ar    1  UNL1        0.0228
     26 C         143.7415  131.7314  157.0936 C.ar    1  UNL1        0.0587
     27 CL        144.6511  130.8038  157.8434 Cl      1  UNL1       -0.0822
     28 C         143.9077  133.2160  157.2284 C.ar    1  UNL1        0.0160
@<TRIPOS>BOND
     1    12    13    1
     2    13    14    1
     3    13    15    1
     4    13     8    1
     5     8     9   am
     6     9    10    2
     7     9     7    1
     8     7     1    1
     9     1     2    1
    10     2     3    1
    11     3     4    1
    12     4    16    1
    13    16    17    1
    14    17    18   am
    15    18    19    2
    16    18    21    1
    17    21    22   ar
    18    22    23   ar
    19    23    24    1
    20    23    25   ar
    21    25    26   ar
    22    26    27    1
    23    26    28   ar
    24     4     5    1
    25     5     6    1
    26     6     1    1
    27    28    21   ar
    28     8    11    1
    29    17    20    1
