@<TRIPOS>MOLECULE
*****
 35 39 0 0 0
SMALL
GASTEIGER

@<TRIPOS>ATOM
      1 N         142.9636  138.8804  163.7705 N.3     1  UNL1       -0.2679
      2 C         143.5805  140.2445  163.8643 C.3     1  UNL1        0.0978
      3 C         145.0728  140.3923  163.8937 C.3     1  UNL1        0.0224
      4 C         145.6897  141.7564  163.9876 C.3     1  UNL1        0.0065
      5 C         144.8141  142.9726  164.0520 C.3     1  UNL1        0.0277
      6 C         143.3218  142.8248  164.0227 C.ar    1  UNL1       -0.0073
      7 C         142.4461  144.0410  164.0872 C.ar    1  UNL1       -0.0015
      8 C         140.9538  143.8931  164.0578 C.ar    1  UNL1        0.0203
      9 C         140.3369  142.5291  163.9639 C.ar    1  UNL1        0.0985
     10 N         141.2125  141.3129  163.8994 N.ar    1  UNL1       -0.2471
     11 C         142.7049  141.4607  163.9288 C.ar    1  UNL1        0.0695
     12 C         142.6854  138.2739  162.4271 C.3     1  UNL1        0.0725
     13 C         143.7758  138.1936  161.4001 C.3     1  UNL1        0.0188
     14 C         143.8800  139.2429  160.3333 C.3     1  UNL1        0.0188
     15 C         142.7544  140.2115  160.1215 C.3     1  UNL1        0.0721
     16 C         144.3817  142.2107  160.4457 C.3     1  UNL1        0.0896
     17 N         142.9847  141.6818  160.3093 N.3     1  UNL1       -0.2726
     18 C         141.8181  142.6232  160.3608 C.3     1  UNL1        0.0625
     19 C         140.4183  142.0860  160.3145 C.3     1  UNL1        0.0481
     20 C         139.2516  143.0274  160.3659 C.3     1  UNL1        0.1435
     21 O         139.4847  144.5059  160.4637 O.3     1  UNL1       -0.3537
     22 C         140.8845  145.0432  160.5099 C.3     1  UNL1        0.1435
     23 C         142.0512  144.1018  160.4585 C.3     1  UNL1        0.0481
     24 C         142.6250  138.1228  165.0200 C.3     1  UNL1        0.0886
     25 C         141.9921  138.8333  166.1796 C.3     1  UNL1        0.0764
     26 C         142.7880  139.0953  167.4237 C.3     1  UNL1        0.0626
     27 C         142.1551  139.8058  168.5833 C.ar    1  UNL1        0.0577
     28 N         142.9510  140.0678  169.8274 N.ar    1  UNL1       -0.2484
     29 C         142.3181  140.7783  170.9869 C.ar    1  UNL1        0.0984
     30 C         140.8892  141.2268  170.9024 C.ar    1  UNL1        0.0204
     31 C         140.0932  140.9648  169.6583 C.ar    1  UNL1       -0.0002
     32 C         140.7262  140.2543  168.4988 C.ar    1  UNL1        0.0073
     33 C         139.9302  139.9923  167.2546 C.3     1  UNL1        0.0968
     34 N         140.5632  139.2818  166.0951 N.3     1  UNL1       -0.2934
     35 H         140.4986  139.9100  165.2941 H       1  UNL1        0.1236
@<TRIPOS>BOND
     1    16    17    1
     2    17    15    1
     3    15    14    1
     4    14    13    1
     5    13    12    1
     6    12     1    1
     7     1    24    1
     8    25    24    1
     9    25    26    1
    10    26    27    1
    11    27    28   ar
    12    28    29   ar
    13    29    30   ar
    14    30    31   ar
    15    31    32   ar
    16    32    33    1
    17    33    34    1
    18     2     1    1
    19     2     3    1
    20     3     4    1
    21     4     5    1
    22     5     6    1
    23     6     7   ar
    24     7     8   ar
    25     8     9   ar
    26     9    10   ar
    27    10    11   ar
    28    17    18    1
    29    18    19    1
    30    19    20    1
    31    20    21    1
    32    21    22    1
    33    22    23    1
    34    34    25    1
    35    11     2    1
    36    23    18    1
    37    32    27   ar
    38    11     6   ar
    39    34    35    1
@<TRIPOS>MOLECULE
*****
 35 39 0 0 0
SMALL
GASTEIGER

@<TRIPOS>ATOM
      1 N         142.9557  141.3352  163.1358 N.3     1  UNL1       -0.2679
      2 C         142.5707  142.7747  163.3082 C.3     1  UNL1        0.0978
      3 C         143.6259  143.8061  163.5780 C.3     1  UNL1        0.0224
      4 C         143.2409  145.2456  163.7504 C.3     1  UNL1        0.0065
      5 C         141.8008  145.6537  163.6530 C.3     1  UNL1        0.0277
      6 C         140.7457  144.6223  163.3832 C.ar    1  UNL1       -0.0073
      7 C         139.3055  145.0303  163.2858 C.ar    1  UNL1       -0.0015
      8 C         138.2503  143.9989  163.0160 C.ar    1  UNL1        0.0203
      9 C         138.6353  142.5594  162.8436 C.ar    1  UNL1        0.0985
     10 N         140.0754  142.1514  162.9410 N.ar    1  UNL1       -0.2471
     11 C         141.1306  143.1828  163.2108 C.ar    1  UNL1        0.0695
     12 C         143.4054  140.8345  161.7953 C.3     1  UNL1        0.0725
     13 C         144.1143  139.5170  161.6860 C.3     1  UNL1        0.0188
     14 C         143.8429  138.6139  160.5196 C.3     1  UNL1        0.0188
     15 C         142.6887  137.6570  160.5646 C.3     1  UNL1        0.0721
     16 C         140.5380  138.7965  159.6555 C.3     1  UNL1        0.0896
     17 N         141.2970  138.1706  160.7877 N.3     1  UNL1       -0.2726
     18 C         140.6645  138.0581  162.1432 C.3     1  UNL1        0.0625
     19 C         139.3123  138.6577  162.3919 C.3     1  UNL1        0.0481
     20 C         138.6797  138.5453  163.7473 C.3     1  UNL1        0.1435
     21 O         139.3994  137.8332  164.8541 O.3     1  UNL1       -0.3537
     22 C         140.7517  137.2335  164.6054 C.3     1  UNL1        0.1435
     23 C         141.3842  137.3460  163.2500 C.3     1  UNL1        0.0481
     24 C         142.8909  140.3965  164.3039 C.3     1  UNL1        0.0886
     25 C         142.2253  140.8282  165.5770 C.3     1  UNL1        0.0764
     26 C         143.0279  141.4965  166.6537 C.3     1  UNL1        0.0626
     27 C         142.3623  141.9282  167.9268 C.ar    1  UNL1        0.0577
     28 N         143.1649  142.5966  169.0034 N.ar    1  UNL1       -0.2484
     29 C         142.4994  143.0282  170.2764 C.ar    1  UNL1        0.0984
     30 C         141.0312  142.7915  170.4729 C.ar    1  UNL1        0.0204
     31 C         140.2287  142.1231  169.3963 C.ar    1  UNL1       -0.0002
     32 C         140.8942  141.6915  168.1232 C.ar    1  UNL1        0.0073
     33 C         140.0916  141.0231  167.0465 C.3     1  UNL1        0.0968
     34 N         140.7572  140.5915  165.7735 N.3     1  UNL1       -0.2934
     35 H         140.2771  141.0720  165.0126 H       1  UNL1        0.1236
@<TRIPOS>BOND
     1    16    17    1
     2    17    15    1
     3    15    14    1
     4    14    13    1
     5    13    12    1
     6    12     1    1
     7     1    24    1
     8    25    24    1
     9    25    26    1
    10    26    27    1
    11    27    28   ar
    12    28    29   ar
    13    29    30   ar
    14    30    31   ar
    15    31    32   ar
    16    32    33    1
    17    33    34    1
    18     2     1    1
    19     2     3    1
    20     3     4    1
    21     4     5    1
    22     5     6    1
    23     6     7   ar
    24     7     8   ar
    25     8     9   ar
    26     9    10   ar
    27    10    11   ar
    28    17    18    1
    29    18    19    1
    30    19    20    1
    31    20    21    1
    32    21    22    1
    33    22    23    1
    34    34    25    1
    35    11     2    1
    36    23    18    1
    37    32    27   ar
    38    11     6   ar
    39    34    35    1
@<TRIPOS>MOLECULE
*****
 35 39 0 0 0
SMALL
GASTEIGER

@<TRIPOS>ATOM
      1 N         138.5253  139.8880  164.1791 N.3     1  UNL1       -0.2679
      2 C         138.7614  141.3680  164.1171 C.3     1  UNL1        0.0978
      3 C         137.6073  142.3176  164.2447 C.3     1  UNL1        0.0224
      4 C         137.8434  143.7976  164.1828 C.3     1  UNL1        0.0065
      5 C         139.2336  144.3280  163.9932 C.3     1  UNL1        0.0277
      6 C         140.3877  143.3785  163.8656 C.ar    1  UNL1       -0.0073
      7 C         141.7779  143.9089  163.6761 C.ar    1  UNL1       -0.0015
      8 C         142.9320  142.9593  163.5485 C.ar    1  UNL1        0.0203
      9 C         142.6960  141.4793  163.6104 C.ar    1  UNL1        0.0985
     10 N         141.3058  140.9489  163.8000 N.ar    1  UNL1       -0.2471
     11 C         140.1516  141.8985  163.9276 C.ar    1  UNL1        0.0695
     12 C         138.3489  139.1030  162.9131 C.3     1  UNL1        0.0725
     13 C         139.1746  137.8742  162.6713 C.3     1  UNL1        0.0188
     14 C         140.4495  137.9697  161.8869 C.3     1  UNL1        0.0188
     15 C         140.4595  138.6544  160.5524 C.3     1  UNL1        0.0721
     16 C         142.7669  139.7893  160.1811 C.3     1  UNL1        0.0896
     17 N         141.2803  139.8937  160.3513 N.3     1  UNL1       -0.2726
     18 C         140.6144  141.2375  160.3206 C.3     1  UNL1        0.0625
     19 C         141.4403  142.4806  160.1707 C.3     1  UNL1        0.0481
     20 C         140.7744  143.8243  160.1399 C.3     1  UNL1        0.1435
     21 O         139.2826  143.9249  160.2591 O.3     1  UNL1       -0.3537
     22 C         138.4566  142.6818  160.4091 C.3     1  UNL1        0.1435
     23 C         139.1225  141.3381  160.4398 C.3     1  UNL1        0.0481
     24 C         138.4657  139.1930  165.5069 C.3     1  UNL1        0.0886
     25 C         139.5190  139.4596  166.5411 C.3     1  UNL1        0.0764
     26 C         139.1240  139.9241  167.9115 C.3     1  UNL1        0.0626
     27 C         140.1774  140.1908  168.9457 C.ar    1  UNL1        0.0577
     28 N         139.7824  140.6553  170.3161 N.ar    1  UNL1       -0.2484
     29 C         140.8357  140.9219  171.3502 C.ar    1  UNL1        0.0984
     30 C         142.2841  140.7240  171.0138 C.ar    1  UNL1        0.0204
     31 C         142.6791  140.2596  169.6434 C.ar    1  UNL1       -0.0002
     32 C         141.6257  139.9929  168.6093 C.ar    1  UNL1        0.0073
     33 C         142.0207  139.5284  167.2388 C.3     1  UNL1        0.0968
     34 N         140.9674  139.2618  166.2047 N.3     1  UNL1       -0.2934
     35 H         141.0733  138.2878  165.9208 H       1  UNL1        0.1236
@<TRIPOS>BOND
     1    16    17    1
     2    17    15    1
     3    15    14    1
     4    14    13    1
     5    13    12    1
     6    12     1    1
     7     1    24    1
     8    25    24    1
     9    25    26    1
    10    26    27    1
    11    27    28   ar
    12    28    29   ar
    13    29    30   ar
    14    30    31   ar
    15    31    32   ar
    16    32    33    1
    17    33    34    1
    18     2     1    1
    19     2     3    1
    20     3     4    1
    21     4     5    1
    22     5     6    1
    23     6     7   ar
    24     7     8   ar
    25     8     9   ar
    26     9    10   ar
    27    10    11   ar
    28    17    18    1
    29    18    19    1
    30    19    20    1
    31    20    21    1
    32    21    22    1
    33    22    23    1
    34    34    25    1
    35    11     2    1
    36    23    18    1
    37    32    27   ar
    38    11     6   ar
    39    34    35    1
@<TRIPOS>MOLECULE
*****
 35 39 0 0 0
SMALL
GASTEIGER

@<TRIPOS>ATOM
      1 N         140.1294  138.8737  163.9679 N.3     1  UNL1       -0.2679
      2 C         141.6053  139.0444  164.1743 C.3     1  UNL1        0.0978
      3 C         142.2860  138.3608  165.3228 C.3     1  UNL1        0.0224
      4 C         143.7619  138.5314  165.5292 C.3     1  UNL1        0.0065
      5 C         144.5571  139.3857  164.5870 C.3     1  UNL1        0.0277
      6 C         143.8764  140.0694  163.4384 C.ar    1  UNL1       -0.0073
      7 C         144.6716  140.9237  162.4962 C.ar    1  UNL1       -0.0015
      8 C         143.9909  141.6074  161.3476 C.ar    1  UNL1        0.0203
      9 C         142.5150  141.4367  161.1412 C.ar    1  UNL1        0.0985
     10 N         141.7198  140.5824  162.0834 N.ar    1  UNL1       -0.2471
     11 C         142.4005  139.8987  163.2321 C.ar    1  UNL1        0.0695
     12 C         139.6201  137.8183  163.0317 C.3     1  UNL1        0.0725
     13 C         138.3575  138.0499  162.2557 C.3     1  UNL1        0.0188
     14 C         138.3318  139.0635  161.1503 C.3     1  UNL1        0.0188
     15 C         137.6928  140.4018  161.3746 C.3     1  UNL1        0.0721
     16 C         139.0506  141.8130  159.6673 C.3     1  UNL1        0.0896
     17 N         138.4381  141.6565  161.0275 N.3     1  UNL1       -0.2726
     18 C         138.5708  142.7546  162.0407 C.3     1  UNL1        0.0625
     19 C         139.6722  143.7647  161.9120 C.3     1  UNL1        0.0481
     20 C         139.8049  144.8628  162.9252 C.3     1  UNL1        0.1435
     21 O         138.8363  144.9508  164.0670 O.3     1  UNL1       -0.3537
     22 C         137.7349  143.9406  164.1958 C.3     1  UNL1        0.1435
     23 C         137.6021  142.8425  163.1826 C.3     1  UNL1        0.0481
     24 C         139.1628  139.7585  164.6978 C.3     1  UNL1        0.0886
     25 C         139.6068  140.5074  165.9193 C.3     1  UNL1        0.0764
     26 C         139.5957  139.8318  167.2585 C.3     1  UNL1        0.0626
     27 C         140.0397  140.5807  168.4801 C.ar    1  UNL1        0.0577
     28 N         140.0287  139.9052  169.8192 N.ar    1  UNL1       -0.2484
     29 C         140.4726  140.6541  171.0407 C.ar    1  UNL1        0.0984
     30 C         140.9277  142.0785  170.9230 C.ar    1  UNL1        0.0204
     31 C         140.9387  142.7541  169.5838 C.ar    1  UNL1       -0.0002
     32 C         140.4948  142.0052  168.3624 C.ar    1  UNL1        0.0073
     33 C         140.5058  142.6807  167.0231 C.3     1  UNL1        0.0968
     34 N         140.0618  141.9318  165.8016 N.3     1  UNL1       -0.2934
     35 H         140.8475  141.9372  165.1512 H       1  UNL1        0.1236
@<TRIPOS>BOND
     1    16    17    1
     2    17    15    1
     3    15    14    1
     4    14    13    1
     5    13    12    1
     6    12     1    1
     7     1    24    1
     8    25    24    1
     9    25    26    1
    10    26    27    1
    11    27    28   ar
    12    28    29   ar
    13    29    30   ar
    14    30    31   ar
    15    31    32   ar
    16    32    33    1
    17    33    34    1
    18     2     1    1
    19     2     3    1
    20     3     4    1
    21     4     5    1
    22     5     6    1
    23     6     7   ar
    24     7     8   ar
    25     8     9   ar
    26     9    10   ar
    27    10    11   ar
    28    17    18    1
    29    18    19    1
    30    19    20    1
    31    20    21    1
    32    21    22    1
    33    22    23    1
    34    34    25    1
    35    11     2    1
    36    23    18    1
    37    32    27   ar
    38    11     6   ar
    39    34    35    1
@<TRIPOS>MOLECULE
*****
 35 39 0 0 0
SMALL
GASTEIGER

@<TRIPOS>ATOM
      1 N         138.4072  140.5035  163.9218 N.3     1  UNL1       -0.2679
      2 C         138.7168  141.9485  164.1790 C.3     1  UNL1        0.0978
      3 C         137.6299  142.8804  164.6261 C.3     1  UNL1        0.0224
      4 C         137.9395  144.3253  164.8834 C.3     1  UNL1        0.0065
      5 C         139.3362  144.8384  164.6936 C.3     1  UNL1        0.0277
      6 C         140.4232  143.9064  164.2465 C.ar    1  UNL1       -0.0073
      7 C         141.8200  144.4195  164.0567 C.ar    1  UNL1       -0.0015
      8 C         142.9069  143.4875  163.6096 C.ar    1  UNL1        0.0203
      9 C         142.5973  142.0426  163.3523 C.ar    1  UNL1        0.0985
     10 N         141.2006  141.5295  163.5421 N.ar    1  UNL1       -0.2471
     11 C         140.1135  142.4615  163.9892 C.ar    1  UNL1        0.0695
     12 C         137.9983  140.0569  162.5494 C.3     1  UNL1        0.0725
     13 C         138.0775  141.0118  161.3953 C.3     1  UNL1        0.0188
     14 C         139.2067  140.9093  160.4133 C.3     1  UNL1        0.0188
     15 C         139.3825  139.6612  159.6001 C.3     1  UNL1        0.0721
     16 C         141.3947  138.5285  158.4093 C.3     1  UNL1        0.0896
     17 N         140.6704  138.8954  159.6705 N.3     1  UNL1       -0.2726
     18 C         141.2340  138.4965  161.0022 C.3     1  UNL1        0.0625
     19 C         140.3969  137.7079  161.9651 C.3     1  UNL1        0.0481
     20 C         140.9604  137.3090  163.2967 C.3     1  UNL1        0.1435
     21 O         142.3611  137.6988  163.6655 O.3     1  UNL1       -0.3537
     22 C         143.1983  138.4875  162.7026 C.3     1  UNL1        0.1435
     23 C         142.6348  138.8864  161.3709 C.3     1  UNL1        0.0481
     24 C         138.5064  139.5051  165.0368 C.3     1  UNL1        0.0886
     25 C         139.5489  139.6720  166.1024 C.3     1  UNL1        0.0764
     26 C         139.1387  139.9891  167.5099 C.3     1  UNL1        0.0626
     27 C         140.1813  140.1560  168.5754 C.ar    1  UNL1        0.0577
     28 N         139.7711  140.4731  169.9829 N.ar    1  UNL1       -0.2484
     29 C         140.8136  140.6400  171.0484 C.ar    1  UNL1        0.0984
     30 C         142.2663  140.4896  170.7064 C.ar    1  UNL1        0.0204
     31 C         142.6765  140.1725  169.2989 C.ar    1  UNL1       -0.0002
     32 C         141.6340  140.0057  168.2334 C.ar    1  UNL1        0.0073
     33 C         142.0442  139.6885  166.8258 C.3     1  UNL1        0.0968
     34 N         141.0017  139.5217  165.7603 N.3     1  UNL1       -0.2934
     35 H         141.1186  138.5832  165.3783 H       1  UNL1        0.1236
@<TRIPOS>BOND
     1    16    17    1
     2    17    15    1
     3    15    14    1
     4    14    13    1
     5    13    12    1
     6    12     1    1
     7     1    24    1
     8    25    24    1
     9    25    26    1
    10    26    27    1
    11    27    28   ar
    12    28    29   ar
    13    29    30   ar
    14    30    31   ar
    15    31    32   ar
    16    32    33    1
    17    33    34    1
    18     2     1    1
    19     2     3    1
    20     3     4    1
    21     4     5    1
    22     5     6    1
    23     6     7   ar
    24     7     8   ar
    25     8     9   ar
    26     9    10   ar
    27    10    11   ar
    28    17    18    1
    29    18    19    1
    30    19    20    1
    31    20    21    1
    32    21    22    1
    33    22    23    1
    34    34    25    1
    35    11     2    1
    36    23    18    1
    37    32    27   ar
    38    11     6   ar
    39    34    35    1
@<TRIPOS>MOLECULE
*****
 35 39 0 0 0
SMALL
GASTEIGER

@<TRIPOS>ATOM
      1 N         138.9216  141.7310  165.1511 N.3     1  UNL1       -0.2679
      2 C         138.9373  140.2339  165.2431 C.3     1  UNL1        0.0978
      3 C         138.0721  139.5352  166.2496 C.3     1  UNL1        0.0224
      4 C         138.0879  138.0381  166.3416 C.3     1  UNL1        0.0065
      5 C         138.9688  137.2397  165.4271 C.3     1  UNL1        0.0277
      6 C         139.8340  137.9384  164.4205 C.ar    1  UNL1       -0.0073
      7 C         140.7150  137.1400  163.5059 C.ar    1  UNL1       -0.0015
      8 C         141.5802  137.8387  162.4994 C.ar    1  UNL1        0.0203
      9 C         141.5645  139.3358  162.4074 C.ar    1  UNL1        0.0985
     10 N         140.6835  140.1342  163.3219 N.ar    1  UNL1       -0.2471
     11 C         139.8183  139.4355  164.3285 C.ar    1  UNL1        0.0695
     12 C         139.8471  142.5447  166.0061 C.3     1  UNL1        0.0725
     13 C         141.1098  143.1053  165.4216 C.3     1  UNL1        0.0188
     14 C         142.3781  142.3061  165.4702 C.3     1  UNL1        0.0188
     15 C         142.9765  141.9285  166.7928 C.3     1  UNL1        0.0721
     16 C         142.6122  139.3572  166.8703 C.3     1  UNL1        0.0896
     17 N         142.4906  140.7064  167.5143 N.3     1  UNL1       -0.2726
     18 C         141.8832  140.8336  168.8799 C.3     1  UNL1        0.0625
     19 C         140.7376  139.9503  169.2765 C.3     1  UNL1        0.0481
     20 C         140.1301  140.0775  170.6420 C.3     1  UNL1        0.1435
     21 O         140.6683  141.0881  171.6111 O.3     1  UNL1       -0.3537
     22 C         141.8139  141.9715  171.2146 C.3     1  UNL1        0.1435
     23 C         142.4214  141.8443  169.8490 C.3     1  UNL1        0.0481
     24 C         137.9803  142.4143  164.2041 C.3     1  UNL1        0.0886
     25 C         138.3516  142.5695  162.7590 C.3     1  UNL1        0.0764
     26 C         138.9853  143.8419  162.2800 C.3     1  UNL1        0.0626
     27 C         139.3566  143.9971  160.8349 C.ar    1  UNL1        0.0577
     28 N         139.9903  145.2694  160.3559 N.ar    1  UNL1       -0.2484
     29 C         140.3616  145.4246  158.9109 C.ar    1  UNL1        0.0984
     30 C         140.0992  144.3074  157.9450 C.ar    1  UNL1        0.0204
     31 C         139.4655  143.0351  158.4240 C.ar    1  UNL1       -0.0002
     32 C         139.0942  142.8799  159.8690 C.ar    1  UNL1        0.0073
     33 C         138.4605  141.6075  160.3481 C.3     1  UNL1        0.0968
     34 N         138.0892  141.4524  161.7931 N.3     1  UNL1       -0.2934
     35 H         138.5944  140.6375  162.1410 H       1  UNL1        0.1236
@<TRIPOS>BOND
     1    16    17    1
     2    17    15    1
     3    15    14    1
     4    14    13    1
     5    13    12    1
     6    12     1    1
     7     1    24    1
     8    25    24    1
     9    25    26    1
    10    26    27    1
    11    27    28   ar
    12    28    29   ar
    13    29    30   ar
    14    30    31   ar
    15    31    32   ar
    16    32    33    1
    17    33    34    1
    18     2     1    1
    19     2     3    1
    20     3     4    1
    21     4     5    1
    22     5     6    1
    23     6     7   ar
    24     7     8   ar
    25     8     9   ar
    26     9    10   ar
    27    10    11   ar
    28    17    18    1
    29    18    19    1
    30    19    20    1
    31    20    21    1
    32    21    22    1
    33    22    23    1
    34    34    25    1
    35    11     2    1
    36    23    18    1
    37    32    27   ar
    38    11     6   ar
    39    34    35    1
@<TRIPOS>MOLECULE
*****
 35 39 0 0 0
SMALL
GASTEIGER

@<TRIPOS>ATOM
      1 N         138.9385  139.5312  165.5722 N.3     1  UNL1       -0.2679
      2 C         139.6024  140.0783  166.8010 C.3     1  UNL1        0.0978
      3 C         139.0251  139.7929  168.1556 C.3     1  UNL1        0.0224
      4 C         139.6890  140.3401  169.3844 C.3     1  UNL1        0.0065
      5 C         140.9303  141.1727  169.2585 C.3     1  UNL1        0.0277
      6 C         141.5076  141.4582  167.9038 C.ar    1  UNL1       -0.0073
      7 C         142.7489  142.2909  167.7778 C.ar    1  UNL1       -0.0015
      8 C         143.3263  142.5763  166.4232 C.ar    1  UNL1        0.0203
      9 C         142.6624  142.0291  165.1944 C.ar    1  UNL1        0.0985
     10 N         141.4211  141.1965  165.3204 N.ar    1  UNL1       -0.2471
     11 C         140.8437  140.9110  166.6751 C.ar    1  UNL1        0.0695
     12 C         139.0936  138.0818  165.2183 C.3     1  UNL1        0.0725
     13 C         139.4191  137.6846  163.8089 C.3     1  UNL1        0.0188
     14 C         140.7892  137.1768  163.4702 C.3     1  UNL1        0.0188
     15 C         141.9863  138.0583  163.6700 C.3     1  UNL1        0.0721
     16 C         142.5534  137.9048  161.1392 C.3     1  UNL1        0.0896
     17 N         142.7799  138.5254  162.4858 N.3     1  UNL1       -0.2726
     18 C         143.7999  139.6131  162.6484 C.3     1  UNL1        0.0625
     19 C         144.7098  139.6159  163.8409 C.3     1  UNL1        0.0481
     20 C         145.7298  140.7036  164.0034 C.3     1  UNL1        0.1435
     21 O         145.8399  141.7885  162.9735 O.3     1  UNL1       -0.3537
     22 C         144.9300  141.7858  161.7810 C.3     1  UNL1        0.1435
     23 C         143.9100  140.6980  161.6184 C.3     1  UNL1        0.0481
     24 C         138.1195  140.4333  164.6975 C.3     1  UNL1        0.0886
     25 C         138.7951  141.3233  163.6967 C.3     1  UNL1        0.0764
     26 C         138.5742  142.8062  163.7422 C.3     1  UNL1        0.0626
     27 C         139.2498  143.6962  162.7414 C.ar    1  UNL1        0.0577
     28 N         139.0289  145.1792  162.7869 N.ar    1  UNL1       -0.2484
     29 C         139.7045  146.0691  161.7861 C.ar    1  UNL1        0.0984
     30 C         140.6010  145.4761  160.7399 C.ar    1  UNL1        0.0204
     31 C         140.8219  143.9932  160.6944 C.ar    1  UNL1       -0.0002
     32 C         140.1463  143.1032  161.6951 C.ar    1  UNL1        0.0073
     33 C         140.3672  141.6202  161.6497 C.3     1  UNL1        0.0968
     34 N         139.6916  140.7303  162.6504 N.3     1  UNL1       -0.2934
     35 H         140.4299  140.2295  163.1448 H       1  UNL1        0.1236
@<TRIPOS>BOND
     1    16    17    1
     2    17    15    1
     3    15    14    1
     4    14    13    1
     5    13    12    1
     6    12     1    1
     7     1    24    1
     8    25    24    1
     9    25    26    1
    10    26    27    1
    11    27    28   ar
    12    28    29   ar
    13    29    30   ar
    14    30    31   ar
    15    31    32   ar
    16    32    33    1
    17    33    34    1
    18     2     1    1
    19     2     3    1
    20     3     4    1
    21     4     5    1
    22     5     6    1
    23     6     7   ar
    24     7     8   ar
    25     8     9   ar
    26     9    10   ar
    27    10    11   ar
    28    17    18    1
    29    18    19    1
    30    19    20    1
    31    20    21    1
    32    21    22    1
    33    22    23    1
    34    34    25    1
    35    11     2    1
    36    23    18    1
    37    32    27   ar
    38    11     6   ar
    39    34    35    1
@<TRIPOS>MOLECULE
*****
 35 39 0 0 0
SMALL
GASTEIGER

@<TRIPOS>ATOM
      1 N         138.4734  139.5064  163.5522 N.3     1  UNL1       -0.2679
      2 C         139.0241  139.6722  164.9375 C.3     1  UNL1        0.0978
      3 C         138.1847  139.3102  166.1267 C.3     1  UNL1        0.0224
      4 C         138.7354  139.4760  167.5120 C.3     1  UNL1        0.0065
      5 C         140.1257  140.0038  167.7082 C.3     1  UNL1        0.0277
      6 C         140.9651  140.3659  166.5191 C.ar    1  UNL1       -0.0073
      7 C         142.3555  140.8938  166.7152 C.ar    1  UNL1       -0.0015
      8 C         143.1949  141.2558  165.5261 C.ar    1  UNL1        0.0203
      9 C         142.6442  141.0900  164.1407 C.ar    1  UNL1        0.0985
     10 N         141.2540  140.5622  163.9445 N.ar    1  UNL1       -0.2471
     11 C         140.4144  140.2001  165.1337 C.ar    1  UNL1        0.0695
     12 C         137.6486  140.5980  162.9374 C.3     1  UNL1        0.0725
     13 C         137.5515  141.9347  163.6111 C.3     1  UNL1        0.0188
     14 C         137.6341  143.1923  162.7978 C.3     1  UNL1        0.0188
     15 C         138.4363  144.3572  163.2972 C.3     1  UNL1        0.0721
     16 C         139.6691  143.8039  165.5163 C.3     1  UNL1        0.0896
     17 N         139.7117  144.1215  164.0509 N.3     1  UNL1       -0.2726
     18 C         141.0295  144.2033  163.3392 C.3     1  UNL1        0.0625
     19 C         141.1633  143.6676  161.9446 C.3     1  UNL1        0.0481
     20 C         142.4811  143.7495  161.2328 C.3     1  UNL1        0.1435
     21 O         143.6652  144.3671  161.9157 O.3     1  UNL1       -0.3537
     22 C         143.5315  144.9029  163.3104 C.3     1  UNL1        0.1435
     23 C         142.2137  144.8210  164.0221 C.3     1  UNL1        0.0481
     24 C         138.7474  138.2490  162.7817 C.3     1  UNL1        0.0886
     25 C         139.6549  138.2837  161.5878 C.3     1  UNL1        0.0764
     26 C         139.0810  138.4707  160.2146 C.3     1  UNL1        0.0626
     27 C         139.9885  138.5054  159.0207 C.ar    1  UNL1        0.0577
     28 N         139.4145  138.6925  157.6476 N.ar    1  UNL1       -0.2484
     29 C         140.3220  138.7271  156.4538 C.ar    1  UNL1        0.0984
     30 C         141.8034  138.5747  156.6331 C.ar    1  UNL1        0.0204
     31 C         142.3774  138.3877  158.0062 C.ar    1  UNL1       -0.0002
     32 C         141.4699  138.3530  159.2001 C.ar    1  UNL1        0.0073
     33 C         142.0438  138.1659  160.5733 C.3     1  UNL1        0.0968
     34 N         141.1363  138.1313  161.7671 N.3     1  UNL1       -0.2934
     35 H         141.4368  138.8833  162.3873 H       1  UNL1        0.1236
@<TRIPOS>BOND
     1    16    17    1
     2    17    15    1
     3    15    14    1
     4    14    13    1
     5    13    12    1
     6    12     1    1
     7     1    24    1
     8    25    24    1
     9    25    26    1
    10    26    27    1
    11    27    28   ar
    12    28    29   ar
    13    29    30   ar
    14    30    31   ar
    15    31    32   ar
    16    32    33    1
    17    33    34    1
    18     2     1    1
    19     2     3    1
    20     3     4    1
    21     4     5    1
    22     5     6    1
    23     6     7   ar
    24     7     8   ar
    25     8     9   ar
    26     9    10   ar
    27    10    11   ar
    28    17    18    1
    29    18    19    1
    30    19    20    1
    31    20    21    1
    32    21    22    1
    33    22    23    1
    34    34    25    1
    35    11     2    1
    36    23    18    1
    37    32    27   ar
    38    11     6   ar
    39    34    35    1
@<TRIPOS>MOLECULE
*****
 35 39 0 0 0
SMALL
GASTEIGER

@<TRIPOS>ATOM
      1 N         142.9900  142.1335  163.2418 N.3     1  UNL1       -0.2679
      2 C         142.9754  140.6918  162.8276 C.3     1  UNL1        0.0978
      3 C         144.1256  140.1229  162.0510 C.3     1  UNL1        0.0224
      4 C         144.1110  138.6813  161.6368 C.3     1  UNL1        0.0065
      5 C         142.9461  137.8086  161.9993 C.3     1  UNL1        0.0277
      6 C         141.7959  138.3775  162.7759 C.ar    1  UNL1       -0.0073
      7 C         140.6309  137.5049  163.1384 C.ar    1  UNL1       -0.0015
      8 C         139.4807  138.0738  163.9151 C.ar    1  UNL1        0.0203
      9 C         139.4953  139.5154  164.3292 C.ar    1  UNL1        0.0985
     10 N         140.6602  140.3881  163.9668 N.ar    1  UNL1       -0.2471
     11 C         141.8105  139.8192  163.1901 C.ar    1  UNL1        0.0695
     12 C         142.4330  143.1826  162.3259 C.3     1  UNL1        0.0725
     13 C         142.5151  144.6311  162.7069 C.3     1  UNL1        0.0188
     14 C         141.2874  145.3539  163.1764 C.3     1  UNL1        0.0188
     15 C         140.2484  145.7889  162.1858 C.3     1  UNL1        0.0721
     16 C         140.1475  145.0998  159.6828 C.3     1  UNL1        0.0896
     17 N         139.7890  144.8426  161.1164 N.3     1  UNL1       -0.2726
     18 C         138.9712  143.6391  161.4807 C.3     1  UNL1        0.0625
     19 C         138.9149  142.4617  160.5530 C.3     1  UNL1        0.0481
     20 C         138.0971  141.2582  160.9173 C.3     1  UNL1        0.1435
     21 O         137.3355  141.2320  162.2092 O.3     1  UNL1       -0.3537
     22 C         137.3918  142.4094  163.1370 C.3     1  UNL1        0.1435
     23 C         138.2096  143.6129  162.7727 C.3     1  UNL1        0.0481
     24 C         143.5618  142.5259  164.5718 C.3     1  UNL1        0.0886
     25 C         142.6901  142.5251  165.7926 C.3     1  UNL1        0.0764
     26 C         143.2899  142.2633  167.1423 C.3     1  UNL1        0.0626
     27 C         142.4182  142.2625  168.3631 C.ar    1  UNL1        0.0577
     28 N         143.0180  142.0008  169.7128 N.ar    1  UNL1       -0.2484
     29 C         142.1464  141.9999  170.9334 C.ar    1  UNL1        0.0984
     30 C         140.6749  142.2608  170.8045 C.ar    1  UNL1        0.0204
     31 C         140.0750  142.5225  169.4548 C.ar    1  UNL1       -0.0002
     32 C         140.9467  142.5234  168.2341 C.ar    1  UNL1        0.0073
     33 C         140.3469  142.7851  166.8843 C.3     1  UNL1        0.0968
     34 N         141.2186  142.7859  165.6636 N.3     1  UNL1       -0.2934
     35 H         141.1192  143.7045  165.2315 H       1  UNL1        0.1236
@<TRIPOS>BOND
     1    16    17    1
     2    17    15    1
     3    15    14    1
     4    14    13    1
     5    13    12    1
     6    12     1    1
     7     1    24    1
     8    25    24    1
     9    25    26    1
    10    26    27    1
    11    27    28   ar
    12    28    29   ar
    13    29    30   ar
    14    30    31   ar
    15    31    32   ar
    16    32    33    1
    17    33    34    1
    18     2     1    1
    19     2     3    1
    20     3     4    1
    21     4     5    1
    22     5     6    1
    23     6     7   ar
    24     7     8   ar
    25     8     9   ar
    26     9    10   ar
    27    10    11   ar
    28    17    18    1
    29    18    19    1
    30    19    20    1
    31    20    21    1
    32    21    22    1
    33    22    23    1
    34    34    25    1
    35    11     2    1
    36    23    18    1
    37    32    27   ar
    38    11     6   ar
    39    34    35    1
