@<TRIPOS>MOLECULE
*****
 34 37 0 0 0
SMALL
GASTEIGER

@<TRIPOS>ATOM
      1 C         141.3560  140.4864  165.2500 C.ar    1  UNL1        0.1633
      2 N         141.9576  139.9347  163.9915 N.ar    1  UNL1       -0.2122
      3 C         141.5529  140.4931  162.6595 C.ar    1  UNL1        0.1322
      4 C         140.5466  141.6030  162.5859 C.ar    1  UNL1        0.0482
      5 C         139.9450  142.1546  163.8443 C.ar    1  UNL1        0.0807
      6 N         140.3497  141.5963  165.1764 N.ar    1  UNL1       -0.2294
      7 C         138.9844  143.2411  163.4613 C.3     1  UNL1        0.1457
      8 C         138.7662  143.3533  164.9412 C.3     1  UNL1        0.0297
      9 C         137.9781  144.3511  163.3877 C.3     1  UNL1        0.0297
     10 S         138.9923  143.3610  161.9661 S.O2    1  UNL1       -0.0039
     11 O         137.9844  144.4459  162.2052 O.2     1  UNL1       -0.1724
     12 O         138.7894  143.7077  160.5210 O.2     1  UNL1       -0.1724
     13 C         139.9578  142.3486  161.4250 C.3     1  UNL1        0.1814
     14 N         142.1545  139.9414  161.4009 N.pl3   1  UNL1       -0.2900
     15 C         143.3769  140.5803  160.8114 C.3     1  UNL1        0.1242
     16 C         143.9785  140.0287  159.5529 C.3     1  UNL1        0.1636
     17 O         143.3577  138.8383  158.8839 O.3     1  UNL1       -0.3502
     18 C         142.1352  138.1994  159.4734 C.3     1  UNL1        0.1618
     19 C         141.5337  138.7511  160.7320 C.3     1  UNL1        0.1038
     20 C         140.3112  138.1122  161.3216 C.3     1  UNL1        0.0241
     21 C         142.5701  138.8114  169.2464 C.ar    1  UNL1        0.0516
     22 C         141.3925  139.7351  169.1468 C.ar    1  UNL1        0.0148
     23 C         140.9878  140.2934  167.8146 C.ar    1  UNL1        0.0043
     24 C         141.7607  139.9280  166.5822 C.ar    1  UNL1        0.0359
     25 C         142.9383  139.0043  166.6818 C.ar    1  UNL1        0.0043
     26 C         143.3430  138.4460  168.0138 C.ar    1  UNL1        0.0148
     27 N         144.3167  136.5255  171.9803 N.am    1  UNL1       -0.2887
     28 C         143.9119  137.0839  170.6482 C.2     1  UNL1        0.3045
     29 O         144.4443  136.4731  169.3859 O.2     1  UNL1       -0.2525
     30 N         142.9748  138.2530  170.5784 N.am    1  UNL1       -0.2683
     31 H         143.9673  136.9264  172.8088 H       1  UNL1        0.1510
     32 H         142.6254  138.6539  171.4070 H       1  UNL1        0.1564
     33 C         146.4270  135.3903  172.9840 C.3     1  UNL1        0.0230
     34 C         145.2538  135.3564  172.0500 C.3     1  UNL1        0.0910
@<TRIPOS>BOND
     1    33    34    1
     2    34    27    1
     3    27    28   am
     4    28    29    2
     5    28    30   am
     6    30    21    1
     7    21    22   ar
     8    22    23   ar
     9    23    24   ar
    10    24     1    1
    11     1     2   ar
    12     2     3   ar
    13     3    14    1
    14    14    15    1
    15    15    16    1
    16    16    17    1
    17    17    18    1
    18    18    19    1
    19    19    20    1
    20     3     4   ar
    21     4     5   ar
    22     5     6   ar
    23     5     7    1
    24     7     8    1
    25     7     9    1
    26     7    10    1
    27    10    11    2
    28    10    12    2
    29    10    13    1
    30    24    25   ar
    31    25    26   ar
    32    26    21   ar
    33     6     1   ar
    34    19    14    1
    35    13     4    1
    36    27    31    1
    37    30    32    1
@<TRIPOS>MOLECULE
*****
 34 37 0 0 0
SMALL
GASTEIGER

@<TRIPOS>ATOM
      1 C         143.2287  141.8379  161.0070 C.ar    1  UNL1        0.1633
      2 N         144.1787  141.4670  159.9070 N.ar    1  UNL1       -0.2122
      3 C         144.1350  142.2004  158.5993 C.ar    1  UNL1        0.1322
      4 C         143.1414  143.3048  158.3916 C.ar    1  UNL1        0.0482
      5 C         142.1914  143.6757  159.4915 C.ar    1  UNL1        0.0807
      6 N         142.2351  142.9423  160.7992 N.ar    1  UNL1       -0.2294
      7 C         141.3283  144.7994  158.9993 C.3     1  UNL1        0.1457
      8 C         140.7040  144.7067  160.3600 C.3     1  UNL1        0.0297
      9 C         140.3347  145.9037  158.7915 C.3     1  UNL1        0.0297
     10 S         141.7448  145.1230  157.5950 S.O2    1  UNL1       -0.0039
     11 O         140.6641  146.1596  157.6809 O.2     1  UNL1       -0.1724
     12 O         141.9354  145.6633  156.2088 O.2     1  UNL1       -0.1724
     13 C         142.8654  144.1993  157.2194 C.3     1  UNL1        0.1814
     14 N         145.0850  141.8295  157.4993 N.pl3   1  UNL1       -0.2900
     15 C         146.4051  142.5317  157.3799 C.3     1  UNL1        0.1242
     16 C         147.3551  142.1608  156.2799 C.3     1  UNL1        0.1636
     17 O         146.9849  141.0878  155.2992 O.3     1  UNL1       -0.3502
     18 C         145.6648  140.3856  155.4186 C.3     1  UNL1        0.1618
     19 C         144.7148  140.7565  156.5187 C.3     1  UNL1        0.1038
     20 C         143.3947  140.0544  156.6380 C.3     1  UNL1        0.0241
     21 C         143.3595  139.6377  164.9303 C.ar    1  UNL1        0.0516
     22 C         144.6180  140.2118  164.3500 C.ar    1  UNL1        0.0148
     23 C         144.5744  140.9452  163.0422 C.ar    1  UNL1        0.0043
     24 C         143.2723  141.1045  162.3148 C.ar    1  UNL1        0.0359
     25 C         142.0139  140.5304  162.8950 C.ar    1  UNL1        0.0043
     26 C         142.0574  139.7970  164.2027 C.ar    1  UNL1        0.0148
     27 N         142.9844  138.8486  168.8015 N.am    1  UNL1       -0.2887
     28 C         142.9408  139.5820  167.4937 C.2     1  UNL1        0.3045
     29 O         142.4350  140.9932  167.4417 O.2     1  UNL1       -0.2525
     30 N         143.4031  138.9043  166.2380 N.am    1  UNL1       -0.2683
     31 H         143.3164  137.9224  168.8357 H       1  UNL1        0.1510
     32 H         143.7351  137.9781  166.2721 H       1  UNL1        0.1564
     33 C         141.0558  139.7107  170.3137 C.3     1  UNL1        0.0230
     34 C         142.5221  139.5264  170.0572 C.3     1  UNL1        0.0910
@<TRIPOS>BOND
     1    33    34    1
     2    34    27    1
     3    27    28   am
     4    28    29    2
     5    28    30   am
     6    30    21    1
     7    21    22   ar
     8    22    23   ar
     9    23    24   ar
    10    24     1    1
    11     1     2   ar
    12     2     3   ar
    13     3    14    1
    14    14    15    1
    15    15    16    1
    16    16    17    1
    17    17    18    1
    18    18    19    1
    19    19    20    1
    20     3     4   ar
    21     4     5   ar
    22     5     6   ar
    23     5     7    1
    24     7     8    1
    25     7     9    1
    26     7    10    1
    27    10    11    2
    28    10    12    2
    29    10    13    1
    30    24    25   ar
    31    25    26   ar
    32    26    21   ar
    33     6     1   ar
    34    19    14    1
    35    13     4    1
    36    27    31    1
    37    30    32    1
@<TRIPOS>MOLECULE
*****
 34 37 0 0 0
SMALL
GASTEIGER

@<TRIPOS>ATOM
      1 C         140.9975  139.4419  161.3595 C.ar    1  UNL1        0.1633
      2 N         141.7173  140.7041  161.7320 N.ar    1  UNL1       -0.2122
      3 C         141.5762  141.2677  163.1148 C.ar    1  UNL1        0.1322
      4 C         140.7152  140.5692  164.1252 C.ar    1  UNL1        0.0482
      5 C         139.9955  139.3070  163.7527 C.ar    1  UNL1        0.0807
      6 N         140.1366  138.7434  162.3699 N.ar    1  UNL1       -0.2294
      7 C         139.2228  138.8430  164.9518 C.3     1  UNL1        0.1457
      8 C         138.8006  137.7215  164.0495 C.3     1  UNL1        0.0297
      9 C         138.3619  138.1444  165.9621 C.3     1  UNL1        0.0297
     10 S         139.4651  139.8184  166.0653 S.O2    1  UNL1       -0.0039
     11 O         138.5535  138.9159  166.8429 O.2     1  UNL1       -0.1724
     12 O         139.5168  140.6050  167.3413 O.2     1  UNL1       -0.1724
     13 C         140.3874  140.8852  165.5545 C.3     1  UNL1        0.1814
     14 N         142.2960  142.5300  163.4874 N.pl3   1  UNL1       -0.2900
     15 C         141.6476  143.8614  163.2487 C.3     1  UNL1        0.1242
     16 C         142.3674  145.1236  163.6212 C.3     1  UNL1        0.1636
     17 O         143.7355  145.0544  164.2324 O.3     1  UNL1       -0.3502
     18 C         144.3838  143.7230  164.4712 C.3     1  UNL1        0.1618
     19 C         143.6640  142.4607  164.0986 C.3     1  UNL1        0.1038
     20 C         144.3123  141.1293  164.3373 C.3     1  UNL1        0.0241
     21 C         141.4210  137.7508  157.2108 C.ar    1  UNL1        0.0516
     22 C         140.0590  138.0507  157.7631 C.ar    1  UNL1        0.0148
     23 C         139.9178  138.6144  159.1460 C.ar    1  UNL1        0.0043
     24 C         141.1387  138.8782  159.9766 C.ar    1  UNL1        0.0359
     25 C         142.5007  138.5783  159.4243 C.ar    1  UNL1        0.0043
     26 C         142.6419  138.0146  158.0415 C.ar    1  UNL1        0.0148
     27 N         142.1784  135.2133  154.2549 N.am    1  UNL1       -0.2887
     28 C         142.0372  135.7771  155.6378 C.2     1  UNL1        0.3045
     29 O         142.3710  134.9308  156.8304 O.2     1  UNL1       -0.2525
     30 N         141.5622  137.1871  155.8280 N.am    1  UNL1       -0.2683
     31 H         141.9593  135.7688  153.4721 H       1  UNL1        0.1510
     32 H         141.3430  137.7426  155.0453 H       1  UNL1        0.1564
     33 C         141.7023  132.6593  154.2556 C.3     1  UNL1        0.0230
     34 C         142.6534  133.8034  154.0647 C.3     1  UNL1        0.0910
@<TRIPOS>BOND
     1    33    34    1
     2    34    27    1
     3    27    28   am
     4    28    29    2
     5    28    30   am
     6    30    21    1
     7    21    22   ar
     8    22    23   ar
     9    23    24   ar
    10    24     1    1
    11     1     2   ar
    12     2     3   ar
    13     3    14    1
    14    14    15    1
    15    15    16    1
    16    16    17    1
    17    17    18    1
    18    18    19    1
    19    19    20    1
    20     3     4   ar
    21     4     5   ar
    22     5     6   ar
    23     5     7    1
    24     7     8    1
    25     7     9    1
    26     7    10    1
    27    10    11    2
    28    10    12    2
    29    10    13    1
    30    24    25   ar
    31    25    26   ar
    32    26    21   ar
    33     6     1   ar
    34    19    14    1
    35    13     4    1
    36    27    31    1
    37    30    32    1
@<TRIPOS>MOLECULE
*****
 34 37 0 0 0
SMALL
GASTEIGER

@<TRIPOS>ATOM
      1 C         138.4434  141.6959  159.9718 C.ar    1  UNL1        0.1633
      2 N         137.7860  140.9408  158.8549 N.ar    1  UNL1       -0.2122
      3 C         137.8859  141.4473  157.4466 C.ar    1  UNL1        0.1322
      4 C         138.6432  142.7089  157.1552 C.ar    1  UNL1        0.0482
      5 C         139.3006  143.4640  158.2721 C.ar    1  UNL1        0.0807
      6 N         139.2007  142.9575  159.6805 N.ar    1  UNL1       -0.2294
      7 C         139.9744  144.6682  157.6839 C.3     1  UNL1        0.1457
      8 C         140.3736  144.9428  159.1035 C.3     1  UNL1        0.0297
      9 C         140.7317  145.9298  157.3926 C.3     1  UNL1        0.0297
     10 S         139.7334  144.6573  156.2034 S.O2    1  UNL1       -0.0039
     11 O         140.5411  145.9212  156.2216 O.2     1  UNL1       -0.1724
     12 O         139.6613  144.9106  154.7268 O.2     1  UNL1       -0.1724
     13 C         138.9107  143.4464  155.8766 C.3     1  UNL1        0.1814
     14 N         137.2285  140.6922  156.3295 N.pl3   1  UNL1       -0.2900
     15 C         135.7701  140.8951  156.0436 C.3     1  UNL1        0.1242
     16 C         135.1126  140.1400  154.9266 C.3     1  UNL1        0.1636
     17 O         135.9137  139.1820  154.0955 O.3     1  UNL1       -0.3502
     18 C         137.3721  138.9792  154.3815 C.3     1  UNL1        0.1618
     19 C         138.0296  139.7343  155.4985 C.3     1  UNL1        0.1038
     20 C         139.4880  139.5314  155.7844 C.3     1  UNL1        0.0241
     21 C         138.1437  140.1766  164.1971 C.ar    1  UNL1        0.0516
     22 C         138.6609  139.2790  163.1122 C.ar    1  UNL1        0.0148
     23 C         138.7607  139.7855  161.7038 C.ar    1  UNL1        0.0043
     24 C         138.3435  141.1895  161.3803 C.ar    1  UNL1        0.0359
     25 C         137.8264  142.0870  162.4651 C.ar    1  UNL1        0.0043
     26 C         137.7265  141.5806  163.8735 C.ar    1  UNL1        0.0148
     27 N         138.9456  139.6015  168.0410 N.am    1  UNL1       -0.2887
     28 C         139.0455  140.1079  166.6326 C.2     1  UNL1        0.3045
     29 O         140.1470  141.0520  166.2514 O.2     1  UNL1       -0.2525
     30 N         138.0439  139.6702  165.6054 N.am    1  UNL1       -0.2683
     31 H         138.2227  138.9818  168.2912 H       1  UNL1        0.1510
     32 H         137.3209  139.0505  165.8556 H       1  UNL1        0.1564
     33 C         139.6484  141.2111  169.9554 C.3     1  UNL1        0.0230
     34 C         139.9473  140.0392  169.0682 C.3     1  UNL1        0.0910
@<TRIPOS>BOND
     1    33    34    1
     2    34    27    1
     3    27    28   am
     4    28    29    2
     5    28    30   am
     6    30    21    1
     7    21    22   ar
     8    22    23   ar
     9    23    24   ar
    10    24     1    1
    11     1     2   ar
    12     2     3   ar
    13     3    14    1
    14    14    15    1
    15    15    16    1
    16    16    17    1
    17    17    18    1
    18    18    19    1
    19    19    20    1
    20     3     4   ar
    21     4     5   ar
    22     5     6   ar
    23     5     7    1
    24     7     8    1
    25     7     9    1
    26     7    10    1
    27    10    11    2
    28    10    12    2
    29    10    13    1
    30    24    25   ar
    31    25    26   ar
    32    26    21   ar
    33     6     1   ar
    34    19    14    1
    35    13     4    1
    36    27    31    1
    37    30    32    1
@<TRIPOS>MOLECULE
*****
 34 37 0 0 0
SMALL
GASTEIGER

@<TRIPOS>ATOM
      1 C         141.6844  139.2932  160.6071 C.ar    1  UNL1        0.1633
      2 N         141.4005  138.2263  159.5916 N.ar    1  UNL1       -0.2122
      3 C         142.0748  138.2670  158.2524 C.ar    1  UNL1        0.1322
      4 C         143.0331  139.3747  157.9286 C.ar    1  UNL1        0.0482
      5 C         143.3170  140.4416  158.9440 C.ar    1  UNL1        0.0807
      6 N         142.6427  140.4008  160.2833 N.ar    1  UNL1       -0.2294
      7 C         144.3012  141.4018  158.3446 C.3     1  UNL1        0.1457
      8 C         144.1772  142.1068  159.6628 C.3     1  UNL1        0.0297
      9 C         145.2595  142.5094  158.0208 C.3     1  UNL1        0.0297
     10 S         144.6256  140.9284  156.9587 S.O2    1  UNL1       -0.0039
     11 O         145.5160  142.1350  156.9247 O.2     1  UNL1       -0.1724
     12 O         145.1361  140.7072  155.5658 O.2     1  UNL1       -0.1724
     13 C         143.8419  139.6755  156.7016 C.3     1  UNL1        0.1814
     14 N         141.7909  137.2001  157.2369 N.pl3   1  UNL1       -0.2900
     15 C         142.7134  136.0245  157.1063 C.3     1  UNL1        0.1242
     16 C         142.4296  134.9577  156.0909 C.3     1  UNL1        0.1636
     17 O         141.2232  135.0663  155.2060 O.3     1  UNL1       -0.3502
     18 C         140.3007  136.2419  155.3366 C.3     1  UNL1        0.1618
     19 C         140.5846  137.3088  156.3521 C.3     1  UNL1        0.1038
     20 C         139.6621  138.4844  156.4828 C.3     1  UNL1        0.0241
     21 C         139.6614  139.1709  164.6249 C.ar    1  UNL1        0.0516
     22 C         139.5320  140.3873  163.7567 C.ar    1  UNL1        0.0148
     23 C         140.2063  140.4280  162.4174 C.ar    1  UNL1        0.0043
     24 C         141.0100  139.2524  161.9464 C.ar    1  UNL1        0.0359
     25 C         141.1394  138.0361  162.8145 C.ar    1  UNL1        0.0043
     26 C         140.4651  137.9953  164.1537 C.ar    1  UNL1        0.0148
     27 N         138.9952  139.6733  168.5048 N.am    1  UNL1       -0.2887
     28 C         139.6695  139.7140  167.1655 C.2     1  UNL1        0.3045
     29 O         141.0263  140.3387  167.0276 O.2     1  UNL1       -0.2525
     30 N         138.9870  139.1302  165.9641 N.am    1  UNL1       -0.2683
     31 H         138.1047  139.2633  168.5953 H       1  UNL1        0.1510
     32 H         138.0965  138.7202  166.0546 H       1  UNL1        0.1564
     33 C         139.5998  141.7317  169.9701 C.3     1  UNL1        0.0230
     34 C         139.6777  140.2571  169.7062 C.3     1  UNL1        0.0910
@<TRIPOS>BOND
     1    33    34    1
     2    34    27    1
     3    27    28   am
     4    28    29    2
     5    28    30   am
     6    30    21    1
     7    21    22   ar
     8    22    23   ar
     9    23    24   ar
    10    24     1    1
    11     1     2   ar
    12     2     3   ar
    13     3    14    1
    14    14    15    1
    15    15    16    1
    16    16    17    1
    17    17    18    1
    18    18    19    1
    19    19    20    1
    20     3     4   ar
    21     4     5   ar
    22     5     6   ar
    23     5     7    1
    24     7     8    1
    25     7     9    1
    26     7    10    1
    27    10    11    2
    28    10    12    2
    29    10    13    1
    30    24    25   ar
    31    25    26   ar
    32    26    21   ar
    33     6     1   ar
    34    19    14    1
    35    13     4    1
    36    27    31    1
    37    30    32    1
@<TRIPOS>MOLECULE
*****
 34 37 0 0 0
SMALL
GASTEIGER

@<TRIPOS>ATOM
      1 C         140.1623  138.5776  157.6737 C.ar    1  UNL1        0.1633
      2 N         139.8099  139.8616  156.9831 N.ar    1  UNL1       -0.2122
      3 C         139.1323  140.9616  157.7452 C.ar    1  UNL1        0.1322
      4 C         138.8072  140.7777  159.1979 C.ar    1  UNL1        0.0482
      5 C         139.1597  139.4937  159.8886 C.ar    1  UNL1        0.0807
      6 N         139.8372  138.3936  159.1265 N.ar    1  UNL1       -0.2294
      7 C         138.7180  139.5999  161.3181 C.3     1  UNL1        0.1457
      8 C         139.2755  138.2117  161.4290 C.3     1  UNL1        0.0297
      9 C         138.3930  139.4159  162.7709 C.3     1  UNL1        0.0297
     10 S         138.0926  140.9496  161.5110 S.O2    1  UNL1       -0.0039
     11 O         137.8983  140.4834  162.9234 O.2     1  UNL1       -0.1724
     12 O         137.4266  142.2017  161.9991 O.2     1  UNL1       -0.1724
     13 C         138.1477  141.6775  160.2007 C.3     1  UNL1        0.1814
     14 N         138.7798  142.2457  157.0545 N.pl3   1  UNL1       -0.2900
     15 C         139.7737  143.3681  157.0051 C.3     1  UNL1        0.1242
     16 C         139.4212  144.6521  156.3145 C.3     1  UNL1        0.1636
     17 O         138.0748  144.8139  155.6733 O.3     1  UNL1       -0.3502
     18 C         137.0809  143.6915  155.7228 C.3     1  UNL1        0.1618
     19 C         137.4334  142.4074  156.4134 C.3     1  UNL1        0.1038
     20 C         136.4395  141.2851  156.4629 C.3     1  UNL1        0.0241
     21 C         142.1951  135.2774  155.3875 C.ar    1  UNL1        0.0516
     22 C         142.9203  135.9769  156.4987 C.ar    1  UNL1        0.0148
     23 C         142.2426  137.0770  157.2608 C.ar    1  UNL1        0.0043
     24 C         140.8399  137.4775  156.9117 C.ar    1  UNL1        0.0359
     25 C         140.1148  136.7780  155.8004 C.ar    1  UNL1        0.0043
     26 C         140.7923  135.6780  155.0384 C.ar    1  UNL1        0.0148
     27 N         143.5985  131.6902  154.4323 N.am    1  UNL1       -0.2887
     28 C         142.9209  132.7903  155.1944 C.2     1  UNL1        0.3045
     29 O         142.2917  132.5034  156.5255 O.2     1  UNL1       -0.2525
     30 N         142.8726  134.1774  154.6254 N.am    1  UNL1       -0.2683
     31 H         144.0115  131.8785  153.5587 H       1  UNL1        0.1510
     32 H         143.2856  134.3657  153.7518 H       1  UNL1        0.1564
     33 C         144.7102  129.9362  155.9934 C.3     1  UNL1        0.0230
     34 C         143.6468  130.3032  155.0013 C.3     1  UNL1        0.0910
@<TRIPOS>BOND
     1    33    34    1
     2    34    27    1
     3    27    28   am
     4    28    29    2
     5    28    30   am
     6    30    21    1
     7    21    22   ar
     8    22    23   ar
     9    23    24   ar
    10    24     1    1
    11     1     2   ar
    12     2     3   ar
    13     3    14    1
    14    14    15    1
    15    15    16    1
    16    16    17    1
    17    17    18    1
    18    18    19    1
    19    19    20    1
    20     3     4   ar
    21     4     5   ar
    22     5     6   ar
    23     5     7    1
    24     7     8    1
    25     7     9    1
    26     7    10    1
    27    10    11    2
    28    10    12    2
    29    10    13    1
    30    24    25   ar
    31    25    26   ar
    32    26    21   ar
    33     6     1   ar
    34    19    14    1
    35    13     4    1
    36    27    31    1
    37    30    32    1
@<TRIPOS>MOLECULE
*****
 34 37 0 0 0
SMALL
GASTEIGER

@<TRIPOS>ATOM
      1 C         140.6537  140.2087  160.1607 C.ar    1  UNL1        0.1633
      2 N         140.3885  139.7259  161.5558 N.ar    1  UNL1       -0.2122
      3 C         140.0752  140.7103  162.6433 C.ar    1  UNL1        0.1322
      4 C         140.0272  142.1776  162.3356 C.ar    1  UNL1        0.0482
      5 C         140.2925  142.6605  160.9405 C.ar    1  UNL1        0.0807
      6 N         140.6057  141.6760  159.8530 N.ar    1  UNL1       -0.2294
      7 C         140.1761  144.1560  160.9376 C.3     1  UNL1        0.1457
      8 C         140.5032  144.0213  159.4799 C.3     1  UNL1        0.0297
      9 C         140.1281  145.6233  160.6299 C.3     1  UNL1        0.0297
     10 S         139.8389  144.5974  162.3310 S.O2    1  UNL1       -0.0039
     11 O         139.8614  145.9724  161.7320 O.2     1  UNL1       -0.1724
     12 O         139.5064  145.3262  163.5990 O.2     1  UNL1       -0.1724
     13 C         139.7469  143.3747  163.1950 C.3     1  UNL1        0.1814
     14 N         139.8100  140.2275  164.0385 N.pl3   1  UNL1       -0.2900
     15 C         138.4078  139.9148  164.4700 C.3     1  UNL1        0.1242
     16 C         138.1425  139.4320  165.8651 C.3     1  UNL1        0.1636
     17 O         139.2794  139.2618  166.8288 O.3     1  UNL1       -0.3502
     18 C         140.6815  139.5745  166.3973 C.3     1  UNL1        0.1618
     19 C         140.9468  140.0573  165.0021 C.3     1  UNL1        0.1038
     20 C         142.3490  140.3700  164.5706 C.3     1  UNL1        0.0241
     21 C         141.5935  137.2553  156.8980 C.ar    1  UNL1        0.0516
     22 C         142.7067  137.9010  157.6686 C.ar    1  UNL1        0.0148
     23 C         142.3935  138.8855  158.7561 C.ar    1  UNL1        0.0043
     24 C         140.9670  139.2242  159.0731 C.ar    1  UNL1        0.0359
     25 C         139.8538  138.5785  158.3025 C.ar    1  UNL1        0.0043
     26 C         140.1670  137.5941  157.2150 C.ar    1  UNL1        0.0148
     27 N         142.9112  133.9971  155.0546 N.am    1  UNL1       -0.2887
     28 C         142.5979  134.9817  156.1422 C.2     1  UNL1        0.3045
     29 O         142.9759  134.6769  157.5614 O.2     1  UNL1       -0.2525
     30 N         141.9067  136.2709  155.8105 N.am    1  UNL1       -0.2683
     31 H         142.6631  134.1972  154.1231 H       1  UNL1        0.1510
     32 H         141.6586  136.4709  154.8790 H       1  UNL1        0.1564
     33 C         142.8184  131.5602  155.9503 C.3     1  UNL1        0.0230
     34 C         143.6024  132.7079  155.3864 C.3     1  UNL1        0.0910
@<TRIPOS>BOND
     1    33    34    1
     2    34    27    1
     3    27    28   am
     4    28    29    2
     5    28    30   am
     6    30    21    1
     7    21    22   ar
     8    22    23   ar
     9    23    24   ar
    10    24     1    1
    11     1     2   ar
    12     2     3   ar
    13     3    14    1
    14    14    15    1
    15    15    16    1
    16    16    17    1
    17    17    18    1
    18    18    19    1
    19    19    20    1
    20     3     4   ar
    21     4     5   ar
    22     5     6   ar
    23     5     7    1
    24     7     8    1
    25     7     9    1
    26     7    10    1
    27    10    11    2
    28    10    12    2
    29    10    13    1
    30    24    25   ar
    31    25    26   ar
    32    26    21   ar
    33     6     1   ar
    34    19    14    1
    35    13     4    1
    36    27    31    1
    37    30    32    1
@<TRIPOS>MOLECULE
*****
 34 37 0 0 0
SMALL
GASTEIGER

@<TRIPOS>ATOM
      1 C         140.4989  139.5173  157.9618 C.ar    1  UNL1        0.1633
      2 N         140.7929  140.9025  157.4669 N.ar    1  UNL1       -0.2122
      3 C         140.2733  142.0929  158.2171 C.ar    1  UNL1        0.1322
      4 C         139.4597  141.8982  159.4622 C.ar    1  UNL1        0.0482
      5 C         139.1658  140.5130  159.9571 C.ar    1  UNL1        0.0807
      6 N         139.6854  139.3226  159.2069 N.ar    1  UNL1       -0.2294
      7 C         138.3430  140.6318  161.2056 C.3     1  UNL1        0.1457
      8 C         138.3875  139.1325  161.1892 C.3     1  UNL1        0.0297
      9 C         137.5295  140.4371  162.4507 C.3     1  UNL1        0.0297
     10 S         138.1284  142.0903  161.4824 S.O2    1  UNL1       -0.0039
     11 O         137.3597  141.5907  162.6696 O.2     1  UNL1       -0.1724
     12 O         137.7531  143.4443  162.0073 O.2     1  UNL1       -0.1724
     13 C         138.8185  142.8730  160.4049 C.3     1  UNL1        0.1814
     14 N         140.5672  143.4781  157.7223 N.pl3   1  UNL1       -0.2900
     15 C         139.5664  144.1971  156.8670 C.3     1  UNL1        0.1242
     16 C         139.8602  145.5822  156.3722 C.3     1  UNL1        0.1636
     17 O         141.1549  146.2485  156.7325 O.3     1  UNL1       -0.3502
     18 C         142.1558  145.5296  157.5878 C.3     1  UNL1        0.1618
     19 C         141.8619  144.1443  158.0827 C.3     1  UNL1        0.1038
     20 C         142.8627  143.4254  158.9379 C.3     1  UNL1        0.0241
     21 C         142.0578  135.9459  155.7112 C.ar    1  UNL1        0.0516
     22 C         140.6240  136.3600  155.5606 C.ar    1  UNL1        0.0148
     23 C         140.1044  137.5505  156.3108 C.ar    1  UNL1        0.0043
     24 C         141.0186  138.3268  157.2116 C.ar    1  UNL1        0.0359
     25 C         142.4524  137.9127  157.3622 C.ar    1  UNL1        0.0043
     26 C         142.9720  136.7223  156.6121 C.ar    1  UNL1        0.0148
     27 N         143.3929  132.2887  154.9415 N.am    1  UNL1       -0.2887
     28 C         142.8733  133.4792  155.6916 C.2     1  UNL1        0.3045
     29 O         142.6495  133.3935  157.1724 O.2     1  UNL1       -0.2525
     30 N         142.5774  134.7554  154.9610 N.am    1  UNL1       -0.2683
     31 H         143.5398  132.3450  153.9696 H       1  UNL1        0.1510
     32 H         142.7243  134.8117  153.9892 H       1  UNL1        0.1564
     33 C         144.9691  130.8675  156.4400 C.3     1  UNL1        0.0230
     34 C         143.6888  131.0125  155.6720 C.3     1  UNL1        0.0910
@<TRIPOS>BOND
     1    33    34    1
     2    34    27    1
     3    27    28   am
     4    28    29    2
     5    28    30   am
     6    30    21    1
     7    21    22   ar
     8    22    23   ar
     9    23    24   ar
    10    24     1    1
    11     1     2   ar
    12     2     3   ar
    13     3    14    1
    14    14    15    1
    15    15    16    1
    16    16    17    1
    17    17    18    1
    18    18    19    1
    19    19    20    1
    20     3     4   ar
    21     4     5   ar
    22     5     6   ar
    23     5     7    1
    24     7     8    1
    25     7     9    1
    26     7    10    1
    27    10    11    2
    28    10    12    2
    29    10    13    1
    30    24    25   ar
    31    25    26   ar
    32    26    21   ar
    33     6     1   ar
    34    19    14    1
    35    13     4    1
    36    27    31    1
    37    30    32    1
@<TRIPOS>MOLECULE
*****
 34 37 0 0 0
SMALL
GASTEIGER

@<TRIPOS>ATOM
      1 C         143.1739  138.7965  159.6414 C.ar    1  UNL1        0.1633
      2 N         142.8916  137.5749  158.8180 N.ar    1  UNL1       -0.2122
      3 C         142.9466  137.6504  157.3210 C.ar    1  UNL1        0.1322
      4 C         143.2839  138.9474  156.6473 C.ar    1  UNL1        0.0482
      5 C         143.5661  140.1690  157.4706 C.ar    1  UNL1        0.0807
      6 N         143.5111  140.0936  158.9677 N.ar    1  UNL1       -0.2294
      7 C         143.8687  141.3001  156.5331 C.3     1  UNL1        0.1457
      8 C         144.0345  142.0939  157.7951 C.3     1  UNL1        0.0297
      9 C         144.2060  142.5972  155.8594 C.3     1  UNL1        0.0297
     10 S         143.7735  140.7776  155.1303 S.O2    1  UNL1       -0.0039
     11 O         144.1306  142.1839  154.7499 O.2     1  UNL1       -0.1724
     12 O         143.7529  140.5491  153.6480 O.2     1  UNL1       -0.1724
     13 C         143.4120  139.3235  155.2008 C.3     1  UNL1        0.1814
     14 N         142.6644  136.4287  156.4975 N.pl3   1  UNL1       -0.2900
     15 C         143.7546  135.4321  156.2362 C.3     1  UNL1        0.1242
     16 C         143.4724  134.2105  155.4128 C.3     1  UNL1        0.1636
     17 O         142.0999  133.9855  154.8507 O.3     1  UNL1       -0.3502
     18 C         141.0098  134.9821  155.1121 C.3     1  UNL1        0.1618
     19 C         141.2920  136.2037  155.9355 C.3     1  UNL1        0.1038
     20 C         140.2018  137.2003  156.1969 C.3     1  UNL1        0.0241
     21 C         143.0090  138.5703  164.1328 C.ar    1  UNL1        0.0516
     22 C         141.9834  137.8512  163.3074 C.ar    1  UNL1        0.0148
     23 C         142.0384  137.9266  161.8103 C.ar    1  UNL1        0.0043
     24 C         143.1189  138.7211  161.1386 C.ar    1  UNL1        0.0359
     25 C         144.1445  139.4401  161.9639 C.ar    1  UNL1        0.0043
     26 C         144.0895  139.3647  163.4609 C.ar    1  UNL1        0.0148
     27 N         142.1135  139.4364  167.9008 N.am    1  UNL1       -0.2887
     28 C         142.1685  139.5118  166.4036 C.2     1  UNL1        0.3045
     29 O         141.4379  140.6041  165.6803 O.2     1  UNL1       -0.2525
     30 N         142.9540  138.4949  165.6298 N.am    1  UNL1       -0.2683
     31 H         142.5930  138.7195  168.3755 H       1  UNL1        0.1510
     32 H         143.4335  137.7780  166.1045 H       1  UNL1        0.1564
     33 C         139.8828  140.2036  168.9893 C.3     1  UNL1        0.0230
     34 C         141.3279  140.4533  168.6745 C.3     1  UNL1        0.0910
@<TRIPOS>BOND
     1    33    34    1
     2    34    27    1
     3    27    28   am
     4    28    29    2
     5    28    30   am
     6    30    21    1
     7    21    22   ar
     8    22    23   ar
     9    23    24   ar
    10    24     1    1
    11     1     2   ar
    12     2     3   ar
    13     3    14    1
    14    14    15    1
    15    15    16    1
    16    16    17    1
    17    17    18    1
    18    18    19    1
    19    19    20    1
    20     3     4   ar
    21     4     5   ar
    22     5     6   ar
    23     5     7    1
    24     7     8    1
    25     7     9    1
    26     7    10    1
    27    10    11    2
    28    10    12    2
    29    10    13    1
    30    24    25   ar
    31    25    26   ar
    32    26    21   ar
    33     6     1   ar
    34    19    14    1
    35    13     4    1
    36    27    31    1
    37    30    32    1
