@<TRIPOS>MOLECULE
*****
 35 39 0 0 0
SMALL
GASTEIGER

@<TRIPOS>ATOM
      1 C         139.4455  139.3207  166.1879 C.3     1  UNL1        0.0545
      2 C         138.9696  139.6690  167.5671 C.3     1  UNL1        0.0163
      3 C         140.1751  139.9152  168.4251 C.3     1  UNL1        0.0123
      4 C         140.6260  140.2827  169.8077 C.3     1  UNL1        0.0358
      5 C         142.1257  140.3136  169.8133 C.3     1  UNL1        0.1615
      6 F         142.9965  140.6362  170.9913 F       1  UNL1       -0.2373
      7 C         142.6016  139.9653  168.4341 C.3     1  UNL1        0.0439
      8 C         141.3961  139.7191  167.5761 C.3     1  UNL1        0.0731
      9 C         140.9452  139.3516  166.1935 C.3     1  UNL1        0.0244
     10 C         142.6171  139.5229  166.7272 C.2     1  UNL1        0.2251
     11 O         143.5824  138.4197  167.0453 O.2     1  UNL1       -0.2749
     12 N         142.8728  140.4299  165.5601 N.am    1  UNL1       -0.2750
     13 C         144.0938  140.2337  164.7112 C.3     1  UNL1        0.1000
     14 C         144.3494  141.1408  163.5442 C.3     1  UNL1        0.0670
     15 C         143.3841  142.2439  163.2262 C.ar    1  UNL1        0.0583
     16 N         143.6398  143.1510  162.0591 N.ar    1  UNL1       -0.2484
     17 C         142.6745  144.2542  161.7410 C.ar    1  UNL1        0.1023
     18 C         141.4535  144.4503  162.5900 C.ar    1  UNL1        0.0902
     19 C         141.1978  143.5433  163.7570 C.ar    1  UNL1        0.0040
     20 C         142.1632  142.4401  164.0751 C.ar    1  UNL1        0.0113
     21 C         141.9075  141.5331  165.2421 C.3     1  UNL1        0.1213
     22 C         140.4882  145.5535  162.2719 C.3     1  UNL1        0.4200
     23 F         139.5229  146.6567  161.9538 F       1  UNL1       -0.1658
     24 F         141.0809  145.6764  160.8995 F       1  UNL1       -0.1658
     25 F         139.8955  145.4305  163.6444 F       1  UNL1       -0.1658
     26 N         138.5747  138.9981  165.0099 N.3     1  UNL1       -0.2975
     27 H         139.0506  138.2651  164.4839 H       1  UNL1        0.1232
     28 C         138.0502  139.7355  162.5745 C.3     1  UNL1        0.1591
     29 C         137.6901  140.8097  161.5915 C.3     1  UNL1        0.1729
     30 O         137.4943  142.2208  162.0609 O.3     1  UNL1       -0.3511
     31 C         137.6587  142.5578  163.5134 C.3     1  UNL1        0.1437
     32 C         138.0188  141.4835  164.4964 C.3     1  UNL1        0.0503
     33 C         138.2146  140.0723  164.0269 C.3     1  UNL1        0.0865
     34 C         139.2096  138.0305  160.9937 C.3     1  UNL1        0.1742
     35 O         138.2460  138.3243  162.1051 O.3     1  UNL1       -0.3496
@<TRIPOS>BOND
     1    34    35    1
     2    35    28    1
     3    28    29    1
     4    29    30    1
     5    30    31    1
     6    31    32    1
     7    32    33    1
     8    33    26    1
     9     1    26    1
    10     1     2    1
    11     3     2    1
    12     3     4    1
    13     4     5    1
    14     5     6    1
    15     5     7    1
    16     7     8    1
    17     8    10    1
    18    10    11    2
    19    10    12   am
    20    12    13    1
    21    13    14    1
    22    14    15    1
    23    15    16   ar
    24    16    17   ar
    25    17    18   ar
    26    18    22    1
    27    22    23    1
    28    22    24    1
    29    22    25    1
    30    18    19   ar
    31    19    20   ar
    32    20    21    1
    33     8     9    1
    34    33    28    1
    35     9     1    1
    36     8     3    1
    37    21    12    1
    38    20    15   ar
    39    26    27    1
@<TRIPOS>MOLECULE
*****
 35 39 0 0 0
SMALL
GASTEIGER

@<TRIPOS>ATOM
      1 C         139.2434  138.3382  165.1956 C.3     1  UNL1        0.0545
      2 C         138.3482  138.7354  166.3317 C.3     1  UNL1        0.0163
      3 C         139.1818  139.4584  167.3478 C.3     1  UNL1        0.0123
      4 C         139.1438  140.1507  168.6779 C.3     1  UNL1        0.0358
      5 C         140.5308  140.6281  168.9918 C.3     1  UNL1        0.1615
      6 F         140.9491  141.3721  170.2254 F       1  UNL1       -0.2373
      7 C         141.4260  140.2308  167.8557 C.3     1  UNL1        0.0439
      8 C         140.5923  139.5079  166.8396 C.3     1  UNL1        0.0731
      9 C         140.6303  138.8155  165.5095 C.3     1  UNL1        0.0244
     10 C         142.0027  139.5574  166.3315 C.2     1  UNL1        0.2251
     11 O         143.0100  138.5569  166.8157 O.2     1  UNL1       -0.2749
     12 N         142.4060  140.6074  165.3390 N.am    1  UNL1       -0.2750
     13 C         143.8164  140.6569  164.8309 C.3     1  UNL1        0.1000
     14 C         144.2195  141.7069  163.8384 C.3     1  UNL1        0.0670
     15 C         143.2123  142.7074  163.3542 C.ar    1  UNL1        0.0583
     16 N         143.6156  143.7574  162.3617 N.ar    1  UNL1       -0.2484
     17 C         142.6083  144.7579  161.8775 C.ar    1  UNL1        0.1023
     18 C         141.1979  144.7084  162.3857 C.ar    1  UNL1        0.0902
     19 C         140.7947  143.6584  163.3781 C.ar    1  UNL1        0.0040
     20 C         141.8019  142.6579  163.8624 C.ar    1  UNL1        0.0113
     21 C         141.3987  141.6079  164.8548 C.3     1  UNL1        0.1213
     22 C         140.1906  145.7089  161.9014 C.3     1  UNL1        0.4200
     23 F         139.1834  146.7094  161.4172 F       1  UNL1       -0.1658
     24 F         140.9162  145.8056  160.5922 F       1  UNL1       -0.1658
     25 F         139.4651  145.6121  163.2107 F       1  UNL1       -0.1658
     26 N         138.8251  137.5941  163.9621 N.3     1  UNL1       -0.2975
     27 H         139.4132  136.7626  163.9062 H       1  UNL1        0.1232
     28 C         140.1225  138.1181  161.7730 C.3     1  UNL1        0.1591
     29 C         140.1920  138.7886  160.4330 C.3     1  UNL1        0.1729
     30 O         139.0338  139.6055  159.9420 O.3     1  UNL1       -0.3511
     31 C         137.8059  139.7520  160.7911 C.3     1  UNL1        0.1437
     32 C         137.7363  139.0815  162.1312 C.3     1  UNL1        0.0503
     33 C         138.8947  138.2646  162.6221 C.3     1  UNL1        0.0865
     34 C         142.6076  137.9550  162.5129 C.3     1  UNL1        0.1742
     35 O         141.2807  137.3012  162.2639 O.3     1  UNL1       -0.3496
@<TRIPOS>BOND
     1    34    35    1
     2    35    28    1
     3    28    29    1
     4    29    30    1
     5    30    31    1
     6    31    32    1
     7    32    33    1
     8    33    26    1
     9     1    26    1
    10     1     2    1
    11     3     2    1
    12     3     4    1
    13     4     5    1
    14     5     6    1
    15     5     7    1
    16     7     8    1
    17     8    10    1
    18    10    11    2
    19    10    12   am
    20    12    13    1
    21    13    14    1
    22    14    15    1
    23    15    16   ar
    24    16    17   ar
    25    17    18   ar
    26    18    22    1
    27    22    23    1
    28    22    24    1
    29    22    25    1
    30    18    19   ar
    31    19    20   ar
    32    20    21    1
    33     8     9    1
    34    33    28    1
    35     9     1    1
    36     8     3    1
    37    21    12    1
    38    20    15   ar
    39    26    27    1
@<TRIPOS>MOLECULE
*****
 35 39 0 0 0
SMALL
GASTEIGER

@<TRIPOS>ATOM
      1 C         140.6114  137.6214  163.9894 C.3     1  UNL1        0.0545
      2 C         139.2030  137.5382  164.4989 C.3     1  UNL1        0.0163
      3 C         139.1193  138.3409  165.7632 C.3     1  UNL1        0.0123
      4 C         138.1971  138.7856  166.8595 C.3     1  UNL1        0.0358
      5 C         138.9838  139.6397  167.8091 C.3     1  UNL1        0.1615
      6 F         138.4549  140.2955  169.0502 F       1  UNL1       -0.2373
      7 C         140.3922  139.7229  167.2996 C.3     1  UNL1        0.0439
      8 C         140.4760  138.9202  166.0353 C.3     1  UNL1        0.0731
      9 C         141.3981  138.4755  164.9390 C.3     1  UNL1        0.0244
     10 C         141.8326  139.4994  166.3072 C.2     1  UNL1        0.2251
     11 O         142.8185  138.7395  167.1443 O.2     1  UNL1       -0.2749
     12 N         142.2033  140.8386  165.7422 N.am    1  UNL1       -0.2750
     13 C         143.5600  141.4178  166.0142 C.3     1  UNL1        0.1000
     14 C         143.9307  142.7569  165.4491 C.3     1  UNL1        0.0670
     15 C         142.9448  143.5168  164.6121 C.ar    1  UNL1        0.0583
     16 N         143.3155  144.8560  164.0471 N.ar    1  UNL1       -0.2484
     17 C         142.3296  145.6159  163.2100 C.ar    1  UNL1        0.1023
     18 C         140.9730  145.0365  162.9381 C.ar    1  UNL1        0.0902
     19 C         140.6022  143.6974  163.5031 C.ar    1  UNL1        0.0040
     20 C         141.5882  142.9376  164.3401 C.ar    1  UNL1        0.0113
     21 C         141.2174  141.5985  164.9052 C.3     1  UNL1        0.1213
     22 C         139.9871  145.7964  162.1011 C.3     1  UNL1        0.4200
     23 F         139.0011  146.5563  161.2640 F       1  UNL1       -0.1658
     24 F         138.9695  145.6838  163.1974 F       1  UNL1       -0.1658
     25 F         141.0046  145.9090  161.0047 F       1  UNL1       -0.1658
     26 N         141.1403  136.9655  162.7483 N.3     1  UNL1       -0.2975
     27 H         141.8632  136.3107  163.0465 H       1  UNL1        0.1232
     28 C         140.8525  138.4059  160.6053 C.3     1  UNL1        0.1591
     29 C         141.4494  139.2413  159.5118 C.3     1  UNL1        0.1729
     30 O         142.9309  139.4718  159.4677 O.3     1  UNL1       -0.3511
     31 C         143.8156  138.8668  160.5172 C.3     1  UNL1        0.1437
     32 C         143.2187  138.0314  161.6108 C.3     1  UNL1        0.0503
     33 C         141.7372  137.8010  161.6548 C.3     1  UNL1        0.0865
     34 C         138.4433  139.3152  160.9500 C.3     1  UNL1        0.1742
     35 O         139.3710  138.1754  160.6494 O.3     1  UNL1       -0.3496
@<TRIPOS>BOND
     1    34    35    1
     2    35    28    1
     3    28    29    1
     4    29    30    1
     5    30    31    1
     6    31    32    1
     7    32    33    1
     8    33    26    1
     9     1    26    1
    10     1     2    1
    11     3     2    1
    12     3     4    1
    13     4     5    1
    14     5     6    1
    15     5     7    1
    16     7     8    1
    17     8    10    1
    18    10    11    2
    19    10    12   am
    20    12    13    1
    21    13    14    1
    22    14    15    1
    23    15    16   ar
    24    16    17   ar
    25    17    18   ar
    26    18    22    1
    27    22    23    1
    28    22    24    1
    29    22    25    1
    30    18    19   ar
    31    19    20   ar
    32    20    21    1
    33     8     9    1
    34    33    28    1
    35     9     1    1
    36     8     3    1
    37    21    12    1
    38    20    15   ar
    39    26    27    1
@<TRIPOS>MOLECULE
*****
 35 39 0 0 0
SMALL
GASTEIGER

@<TRIPOS>ATOM
      1 C         139.2682  138.7548  165.9219 C.3     1  UNL1        0.0545
      2 C         138.4138  139.1600  167.0863 C.3     1  UNL1        0.0163
      3 C         139.2928  139.8459  168.0898 C.3     1  UNL1        0.0123
      4 C         139.3081  140.5202  169.4296 C.3     1  UNL1        0.0358
      5 C         140.7152  140.9556  169.7133 C.3     1  UNL1        0.1615
      6 F         141.1853  141.6708  170.9453 F       1  UNL1       -0.2373
      7 C         141.5695  140.5505  168.5489 C.3     1  UNL1        0.0439
      8 C         140.6905  139.8646  167.5455 C.3     1  UNL1        0.0731
      9 C         140.6753  139.1903  166.2057 C.3     1  UNL1        0.0244
     10 C         142.0881  139.8833  167.0012 C.2     1  UNL1        0.2251
     11 O         143.1153  138.9317  167.5392 O.2     1  UNL1       -0.2749
     12 N         142.4586  140.8537  165.9190 N.am    1  UNL1       -0.2750
     13 C         143.8563  140.8724  165.3747 C.3     1  UNL1        0.1000
     14 C         144.2267  141.8427  164.2925 C.3     1  UNL1        0.0670
     15 C         143.1995  142.7943  163.7546 C.ar    1  UNL1        0.0583
     16 N         143.5700  143.7647  162.6723 N.ar    1  UNL1       -0.2484
     17 C         142.5428  144.7163  162.1344 C.ar    1  UNL1        0.1023
     18 C         141.1452  144.6975  162.6787 C.ar    1  UNL1        0.0902
     19 C         140.7747  143.7272  163.7609 C.ar    1  UNL1        0.0040
     20 C         141.8019  142.7756  164.2988 C.ar    1  UNL1        0.0113
     21 C         141.4315  141.8053  165.3810 C.3     1  UNL1        0.1213
     22 C         140.1180  145.6491  162.1408 C.3     1  UNL1        0.4200
     23 F         139.0908  146.6007  161.6028 F       1  UNL1       -0.1658
     24 F         140.9185  145.8013  160.8814 F       1  UNL1       -0.1658
     25 F         139.3174  145.4969  163.4001 F       1  UNL1       -0.1658
     26 N         138.7981  138.0397  164.6900 N.3     1  UNL1       -0.2975
     27 H         138.8238  137.0420  164.9007 H       1  UNL1        0.1232
     28 C         138.9522  139.1244  162.3342 C.3     1  UNL1        0.1591
     29 C         139.6786  139.3115  161.0352 C.3     1  UNL1        0.1729
     30 O         140.9772  138.6010  160.7930 O.3     1  UNL1       -0.3511
     31 C         141.5495  137.7033  161.8498 C.3     1  UNL1        0.1437
     32 C         140.8231  137.5162  163.1488 C.3     1  UNL1        0.0503
     33 C         139.5244  138.2268  163.3910 C.3     1  UNL1        0.0865
     34 C         137.6470  141.1801  163.2401 C.3     1  UNL1        0.1742
     35 O         137.6536  139.8349  162.5764 O.3     1  UNL1       -0.3496
@<TRIPOS>BOND
     1    34    35    1
     2    35    28    1
     3    28    29    1
     4    29    30    1
     5    30    31    1
     6    31    32    1
     7    32    33    1
     8    33    26    1
     9     1    26    1
    10     1     2    1
    11     3     2    1
    12     3     4    1
    13     4     5    1
    14     5     6    1
    15     5     7    1
    16     7     8    1
    17     8    10    1
    18    10    11    2
    19    10    12   am
    20    12    13    1
    21    13    14    1
    22    14    15    1
    23    15    16   ar
    24    16    17   ar
    25    17    18   ar
    26    18    22    1
    27    22    23    1
    28    22    24    1
    29    22    25    1
    30    18    19   ar
    31    19    20   ar
    32    20    21    1
    33     8     9    1
    34    33    28    1
    35     9     1    1
    36     8     3    1
    37    21    12    1
    38    20    15   ar
    39    26    27    1
@<TRIPOS>MOLECULE
*****
 35 39 0 0 0
SMALL
GASTEIGER

@<TRIPOS>ATOM
      1 C         141.3079  141.8300  161.9191 C.3     1  UNL1        0.0545
      2 C         141.0607  143.2875  161.6653 C.3     1  UNL1        0.0163
      3 C         139.7449  143.6498  162.2879 C.3     1  UNL1        0.0123
      4 C         138.7789  144.7744  162.5158 C.3     1  UNL1        0.0358
      5 C         137.6160  144.2359  163.2953 C.3     1  UNL1        0.1615
      6 F         136.4164  145.0176  163.7425 F       1  UNL1       -0.2373
      7 C         137.8633  142.7783  163.5492 C.3     1  UNL1        0.0439
      8 C         139.1790  142.4161  162.9266 C.3     1  UNL1        0.0731
      9 C         140.1450  141.2914  162.6986 C.3     1  UNL1        0.0244
     10 C         138.6132  141.1824  163.5652 C.2     1  UNL1        0.2251
     11 O         137.7055  140.2812  162.7816 O.2     1  UNL1       -0.2749
     12 N         138.9550  140.8500  164.9874 N.am    1  UNL1       -0.2750
     13 C         138.3891  139.6163  165.6260 C.3     1  UNL1        0.1000
     14 C         138.7309  139.2839  167.0482 C.3     1  UNL1        0.0670
     15 C         139.6386  140.1851  167.8318 C.ar    1  UNL1        0.0583
     16 N         139.9804  139.8526  169.2540 N.ar    1  UNL1       -0.2484
     17 C         140.8880  140.7538  170.0376 C.ar    1  UNL1        0.1023
     18 C         141.4539  141.9875  169.3989 C.ar    1  UNL1        0.0902
     19 C         141.1121  142.3200  167.9767 C.ar    1  UNL1        0.0040
     20 C         140.2044  141.4187  167.1931 C.ar    1  UNL1        0.0113
     21 C         139.8626  141.7512  165.7710 C.3     1  UNL1        0.1213
     22 C         142.3616  142.8888  170.1824 C.3     1  UNL1        0.4200
     23 F         143.2692  143.7900  170.9660 F       1  UNL1       -0.1658
     24 F         141.3780  144.0111  170.0309 F       1  UNL1       -0.1658
     25 F         143.3451  141.7664  170.3340 F       1  UNL1       -0.1658
     26 N         142.5076  141.0482  161.4720 N.3     1  UNL1       -0.2975
     27 H         142.1673  140.1374  161.1638 H       1  UNL1        0.1232
     28 C         144.6876  141.8330  162.6473 C.3     1  UNL1        0.1591
     29 C         145.8131  141.5737  163.6043 C.3     1  UNL1        0.1729
     30 O         145.8841  140.2702  164.3431 O.3     1  UNL1       -0.3511
     31 C         144.8295  139.2259  164.1249 C.3     1  UNL1        0.1437
     32 C         143.7040  139.4853  163.1678 C.3     1  UNL1        0.0503
     33 C         143.6331  140.7889  162.4290 C.3     1  UNL1        0.0865
     34 C         144.2425  144.3927  162.6380 C.3     1  UNL1        0.1742
     35 O         144.6166  143.1365  161.9085 O.3     1  UNL1       -0.3496
@<TRIPOS>BOND
     1    34    35    1
     2    35    28    1
     3    28    29    1
     4    29    30    1
     5    30    31    1
     6    31    32    1
     7    32    33    1
     8    33    26    1
     9     1    26    1
    10     1     2    1
    11     3     2    1
    12     3     4    1
    13     4     5    1
    14     5     6    1
    15     5     7    1
    16     7     8    1
    17     8    10    1
    18    10    11    2
    19    10    12   am
    20    12    13    1
    21    13    14    1
    22    14    15    1
    23    15    16   ar
    24    16    17   ar
    25    17    18   ar
    26    18    22    1
    27    22    23    1
    28    22    24    1
    29    22    25    1
    30    18    19   ar
    31    19    20   ar
    32    20    21    1
    33     8     9    1
    34    33    28    1
    35     9     1    1
    36     8     3    1
    37    21    12    1
    38    20    15   ar
    39    26    27    1
@<TRIPOS>MOLECULE
*****
 35 39 0 0 0
SMALL
GASTEIGER

@<TRIPOS>ATOM
      1 C         143.0941  142.3709  159.9043 C.3     1  UNL1        0.0545
      2 C         141.8369  142.9242  159.3016 C.3     1  UNL1        0.0163
      3 C         141.2907  143.9604  160.2386 C.3     1  UNL1        0.0123
      4 C         140.1762  144.9427  160.4453 C.3     1  UNL1        0.0358
      5 C         140.4070  145.6369  161.7549 C.3     1  UNL1        0.1615
      6 F         139.5338  146.6981  162.3562 F       1  UNL1       -0.2373
      7 C         141.6642  145.0836  162.3575 C.3     1  UNL1        0.0439
      8 C         142.2104  144.0474  161.4205 C.3     1  UNL1        0.0731
      9 C         143.3249  143.0651  161.2138 C.3     1  UNL1        0.0244
     10 C         143.1300  144.1344  162.6023 C.2     1  UNL1        0.2251
     11 O         144.3413  145.0174  162.5466 O.2     1  UNL1       -0.2749
     12 N         142.8384  143.3385  163.8398 N.am    1  UNL1       -0.2750
     13 C         143.7580  143.4255  165.0216 C.3     1  UNL1        0.1000
     14 C         143.4663  142.6295  166.2591 C.3     1  UNL1        0.0670
     15 C         142.2550  141.7466  166.3147 C.ar    1  UNL1        0.0583
     16 N         141.9634  140.9506  167.5523 N.ar    1  UNL1       -0.2484
     17 C         140.7521  140.0676  167.6080 C.ar    1  UNL1        0.1023
     18 C         139.8324  139.9807  166.4261 C.ar    1  UNL1        0.0902
     19 C         140.1241  140.7766  165.1887 C.ar    1  UNL1        0.0040
     20 C         141.3354  141.6596  165.1330 C.ar    1  UNL1        0.0113
     21 C         141.6271  142.4555  163.8955 C.3     1  UNL1        0.1213
     22 C         138.6211  139.0977  166.4818 C.3     1  UNL1        0.4200
     23 F         137.4098  138.2148  166.5375 F       1  UNL1       -0.1658
     24 F         138.4830  139.3797  167.9486 F       1  UNL1       -0.1658
     25 F         138.7592  138.8158  165.0150 F       1  UNL1       -0.1658
     26 N         143.9673  141.3097  159.3030 N.3     1  UNL1       -0.2975
     27 H         143.9439  141.4468  158.2925 H       1  UNL1        0.1232
     28 C         144.0230  139.2350  160.8658 C.3     1  UNL1        0.1591
     29 C         143.7216  137.7866  161.1133 C.3     1  UNL1        0.1729
     30 O         143.0628  136.9645  160.0456 O.3     1  UNL1       -0.3511
     31 C         142.7055  137.5908  158.7302 C.3     1  UNL1        0.1437
     32 C         143.0070  139.0392  158.4826 C.3     1  UNL1        0.0503
     33 C         143.6658  139.8613  159.5505 C.3     1  UNL1        0.0865
     34 C         144.3079  139.8564  163.3724 C.3     1  UNL1        0.1742
     35 O         144.6818  140.0571  161.9336 O.3     1  UNL1       -0.3496
@<TRIPOS>BOND
     1    34    35    1
     2    35    28    1
     3    28    29    1
     4    29    30    1
     5    30    31    1
     6    31    32    1
     7    32    33    1
     8    33    26    1
     9     1    26    1
    10     1     2    1
    11     3     2    1
    12     3     4    1
    13     4     5    1
    14     5     6    1
    15     5     7    1
    16     7     8    1
    17     8    10    1
    18    10    11    2
    19    10    12   am
    20    12    13    1
    21    13    14    1
    22    14    15    1
    23    15    16   ar
    24    16    17   ar
    25    17    18   ar
    26    18    22    1
    27    22    23    1
    28    22    24    1
    29    22    25    1
    30    18    19   ar
    31    19    20   ar
    32    20    21    1
    33     8     9    1
    34    33    28    1
    35     9     1    1
    36     8     3    1
    37    21    12    1
    38    20    15   ar
    39    26    27    1
@<TRIPOS>MOLECULE
*****
 35 39 0 0 0
SMALL
GASTEIGER

@<TRIPOS>ATOM
      1 C         140.1386  142.0008  161.3457 C.3     1  UNL1        0.0545
      2 C         140.0822  143.4957  161.4554 C.3     1  UNL1        0.0163
      3 C         139.2456  143.8415  162.6514 C.3     1  UNL1        0.0123
      4 C         138.6937  144.9791  163.4585 C.3     1  UNL1        0.0358
      5 C         137.8920  144.4009  164.5867 C.3     1  UNL1        0.1615
      6 F         137.1620  145.1808  165.6399 F       1  UNL1       -0.2373
      7 C         137.9484  142.9060  164.4770 C.3     1  UNL1        0.0439
      8 C         138.7850  142.5603  163.2810 C.3     1  UNL1        0.0731
      9 C         139.3369  141.4227  162.4739 C.3     1  UNL1        0.0244
     10 C         138.3243  141.2790  163.9105 C.2     1  UNL1        0.2251
     11 O         137.3701  140.3837  163.1771 O.2     1  UNL1       -0.2749
     12 N         138.8180  140.8931  165.2734 N.am    1  UNL1       -0.2750
     13 C         138.3574  139.6119  165.9028 C.3     1  UNL1        0.1000
     14 C         138.8510  139.2260  167.2657 C.3     1  UNL1        0.0670
     15 C         139.8052  140.1213  167.9990 C.ar    1  UNL1        0.0583
     16 N         140.2988  139.7354  169.3620 N.ar    1  UNL1       -0.2484
     17 C         141.2531  140.6307  170.0953 C.ar    1  UNL1        0.1023
     18 C         141.7137  141.9120  169.4658 C.ar    1  UNL1        0.0902
     19 C         141.2201  142.2978  168.1029 C.ar    1  UNL1        0.0040
     20 C         140.2658  141.4025  167.3696 C.ar    1  UNL1        0.0113
     21 C         139.7722  141.7884  166.0067 C.3     1  UNL1        0.1213
     22 C         142.6679  142.8073  170.1991 C.3     1  UNL1        0.4200
     23 F         143.6222  143.7026  170.9325 F       1  UNL1       -0.1658
     24 F         143.6777  141.6988  170.2385 F       1  UNL1       -0.1658
     25 F         141.6581  143.9158  170.1598 F       1  UNL1       -0.1658
     26 N         140.8686  141.2209  160.2926 N.3     1  UNL1       -0.2975
     27 H         140.1591  140.7610  159.7220 H       1  UNL1        0.1232
     28 C         141.4668  138.7165  160.6386 C.3     1  UNL1        0.1591
     29 C         142.4539  137.6597  161.0372 C.3     1  UNL1        0.1729
     30 O         143.8300  138.0507  161.4883 O.3     1  UNL1       -0.3511
     31 C         144.2190  139.4985  161.5408 C.3     1  UNL1        0.1437
     32 C         143.2318  140.5552  161.1423 C.3     1  UNL1        0.0503
     33 C         141.8557  140.1642  160.6911 C.3     1  UNL1        0.0865
     34 C         139.0320  138.0051  161.2007 C.3     1  UNL1        0.1742
     35 O         140.0907  138.3255  160.1875 O.3     1  UNL1       -0.3496
@<TRIPOS>BOND
     1    34    35    1
     2    35    28    1
     3    28    29    1
     4    29    30    1
     5    30    31    1
     6    31    32    1
     7    32    33    1
     8    33    26    1
     9     1    26    1
    10     1     2    1
    11     3     2    1
    12     3     4    1
    13     4     5    1
    14     5     6    1
    15     5     7    1
    16     7     8    1
    17     8    10    1
    18    10    11    2
    19    10    12   am
    20    12    13    1
    21    13    14    1
    22    14    15    1
    23    15    16   ar
    24    16    17   ar
    25    17    18   ar
    26    18    22    1
    27    22    23    1
    28    22    24    1
    29    22    25    1
    30    18    19   ar
    31    19    20   ar
    32    20    21    1
    33     8     9    1
    34    33    28    1
    35     9     1    1
    36     8     3    1
    37    21    12    1
    38    20    15   ar
    39    26    27    1
@<TRIPOS>MOLECULE
*****
 35 39 0 0 0
SMALL
GASTEIGER

@<TRIPOS>ATOM
      1 C         141.0499  144.4544  161.1890 C.3     1  UNL1        0.0545
      2 C         141.2295  145.4306  162.3136 C.3     1  UNL1        0.0163
      3 C         142.3457  144.9346  163.1842 C.3     1  UNL1        0.0123
      4 C         143.1466  145.2313  164.4173 C.3     1  UNL1        0.0358
      5 C         144.1519  144.1319  164.5928 C.3     1  UNL1        0.1615
      6 F         145.1598  144.0272  165.6988 F       1  UNL1       -0.2373
      7 C         143.9723  143.1557  163.4682 C.3     1  UNL1        0.0439
      8 C         142.8560  143.6517  162.5976 C.3     1  UNL1        0.0731
      9 C         142.0552  143.3550  161.3645 C.3     1  UNL1        0.0244
     10 C         143.3663  142.3690  162.0110 C.2     1  UNL1        0.2251
     11 O         144.4910  142.3931  161.0188 O.2     1  UNL1       -0.2749
     12 N         142.7519  141.0620  162.4167 N.am    1  UNL1       -0.2750
     13 C         143.2622  139.7793  161.8301 C.3     1  UNL1        0.1000
     14 C         142.6479  138.4724  162.2358 C.3     1  UNL1        0.0670
     15 C         141.5232  138.4483  163.2280 C.ar    1  UNL1        0.0583
     16 N         140.9088  137.1414  163.6337 N.ar    1  UNL1       -0.2484
     17 C         139.7841  137.1173  164.6259 C.ar    1  UNL1        0.1023
     18 C         139.2739  138.4001  165.2125 C.ar    1  UNL1        0.0902
     19 C         139.8882  139.7070  164.8068 C.ar    1  UNL1        0.0040
     20 C         141.0129  139.7311  163.8146 C.ar    1  UNL1        0.0113
     21 C         141.6273  141.0379  163.4089 C.3     1  UNL1        0.1213
     22 C         138.1492  138.3760  166.2048 C.3     1  UNL1        0.4200
     23 F         137.0245  138.3519  167.1970 F       1  UNL1       -0.1658
     24 F         138.1376  139.8758  166.2281 F       1  UNL1       -0.1658
     25 F         138.1608  136.8762  166.1815 F       1  UNL1       -0.1658
     26 N         140.0420  144.5592  160.0830 N.3     1  UNL1       -0.2975
     27 H         139.1792  144.9056  160.5026 H       1  UNL1        0.1232
     28 C         138.5425  142.4677  159.7259 C.3     1  UNL1        0.1591
     29 C         138.1775  141.2522  158.9263 C.3     1  UNL1        0.1729
     30 O         138.9468  140.9127  157.6842 O.3     1  UNL1       -0.3511
     31 C         140.0812  141.7887  157.2416 C.3     1  UNL1        0.1437
     32 C         140.4463  143.0042  158.0412 C.3     1  UNL1        0.0503
     33 C         139.6769  143.3437  159.2834 C.3     1  UNL1        0.0865
     34 C         138.1642  142.1988  162.2822 C.3     1  UNL1        0.1742
     35 O         137.7732  142.8072  160.9680 O.3     1  UNL1       -0.3496
@<TRIPOS>BOND
     1    34    35    1
     2    35    28    1
     3    28    29    1
     4    29    30    1
     5    30    31    1
     6    31    32    1
     7    32    33    1
     8    33    26    1
     9     1    26    1
    10     1     2    1
    11     3     2    1
    12     3     4    1
    13     4     5    1
    14     5     6    1
    15     5     7    1
    16     7     8    1
    17     8    10    1
    18    10    11    2
    19    10    12   am
    20    12    13    1
    21    13    14    1
    22    14    15    1
    23    15    16   ar
    24    16    17   ar
    25    17    18   ar
    26    18    22    1
    27    22    23    1
    28    22    24    1
    29    22    25    1
    30    18    19   ar
    31    19    20   ar
    32    20    21    1
    33     8     9    1
    34    33    28    1
    35     9     1    1
    36     8     3    1
    37    21    12    1
    38    20    15   ar
    39    26    27    1
@<TRIPOS>MOLECULE
*****
 35 39 0 0 0
SMALL
GASTEIGER

@<TRIPOS>ATOM
      1 C         140.8566  141.8291  161.3684 C.3     1  UNL1        0.0545
      2 C         142.2846  141.8277  160.9092 C.3     1  UNL1        0.0163
      3 C         142.8325  140.4449  161.1030 C.3     1  UNL1        0.0123
      4 C         144.0536  139.5894  160.9390 C.3     1  UNL1        0.0358
      5 C         143.7189  138.2073  161.4165 C.3     1  UNL1        0.1615
      6 F         144.6490  137.0305  161.4321 F       1  UNL1       -0.2373
      7 C         142.2910  138.2087  161.8757 C.3     1  UNL1        0.0439
      8 C         141.7431  139.5915  161.6819 C.3     1  UNL1        0.0731
      9 C         140.5219  140.4470  161.8459 C.3     1  UNL1        0.0244
     10 C         140.6537  138.7383  162.2608 C.2     1  UNL1        0.2251
     11 O         139.9939  137.6890  161.4160 O.2     1  UNL1       -0.2749
     12 N         140.2240  138.9343  163.6846 N.am    1  UNL1       -0.2750
     13 C         139.1346  138.0810  164.2634 C.3     1  UNL1        0.1000
     14 C         138.7050  138.2771  165.6871 C.3     1  UNL1        0.0670
     15 C         139.3648  139.3264  166.5319 C.ar    1  UNL1        0.0583
     16 N         138.9351  139.5224  167.9557 N.ar    1  UNL1       -0.2484
     17 C         139.5948  140.5717  168.8005 C.ar    1  UNL1        0.1023
     18 C         140.6843  141.4250  168.2216 C.ar    1  UNL1        0.0902
     19 C         141.1139  141.2289  166.7979 C.ar    1  UNL1        0.0040
     20 C         140.4541  140.1796  165.9531 C.ar    1  UNL1        0.0113
     21 C         140.8838  139.9836  164.5294 C.3     1  UNL1        0.1213
     22 C         141.3440  142.4742  169.0664 C.3     1  UNL1        0.4200
     23 F         142.0038  143.5235  169.9112 F       1  UNL1       -0.1658
     24 F         142.4492  141.5148  169.3950 F       1  UNL1       -0.1658
     25 F         140.2389  143.4337  168.7377 F       1  UNL1       -0.1658
     26 N         139.9265  143.0059  161.3528 N.3     1  UNL1       -0.2975
     27 H         140.4668  143.8038  161.0182 H       1  UNL1        0.1232
     28 C         139.7920  144.6003  163.3996 C.3     1  UNL1        0.1591
     29 C         139.1132  145.0366  164.6641 C.3     1  UNL1        0.1729
     30 O         137.8900  144.3146  165.1462 O.3     1  UNL1       -0.3511
     31 C         137.3456  143.1563  164.3638 C.3     1  UNL1        0.1437
     32 C         138.0244  142.7201  163.0993 C.3     1  UNL1        0.0503
     33 C         139.2477  143.4421  162.6172 C.3     1  UNL1        0.0865
     34 C         142.3541  145.0144  163.5198 C.3     1  UNL1        0.1742
     35 O         141.0152  145.3223  162.9175 O.3     1  UNL1       -0.3496
@<TRIPOS>BOND
     1    34    35    1
     2    35    28    1
     3    28    29    1
     4    29    30    1
     5    30    31    1
     6    31    32    1
     7    32    33    1
     8    33    26    1
     9     1    26    1
    10     1     2    1
    11     3     2    1
    12     3     4    1
    13     4     5    1
    14     5     6    1
    15     5     7    1
    16     7     8    1
    17     8    10    1
    18    10    11    2
    19    10    12   am
    20    12    13    1
    21    13    14    1
    22    14    15    1
    23    15    16   ar
    24    16    17   ar
    25    17    18   ar
    26    18    22    1
    27    22    23    1
    28    22    24    1
    29    22    25    1
    30    18    19   ar
    31    19    20   ar
    32    20    21    1
    33     8     9    1
    34    33    28    1
    35     9     1    1
    36     8     3    1
    37    21    12    1
    38    20    15   ar
    39    26    27    1
