@<TRIPOS>MOLECULE
*****
 25 27 0 0 0
SMALL
GASTEIGER

@<TRIPOS>ATOM
      1 N         139.7479  138.7042  165.6565 N.am    1  UNL1       -0.2969
      2 C         138.8380  139.0692  166.7917 C.2     1  UNL1        0.2461
      3 O         137.4114  138.6056  166.7883 O.2     1  UNL1       -0.2701
      4 H         140.6842  139.0085  165.6588 H       1  UNL1        0.1501
      5 C         139.3545  139.8979  167.9304 C.ar    1  UNL1        0.0540
      6 C         138.5869  139.9657  169.2173 C.ar    1  UNL1        0.0061
      7 C         139.1035  140.7944  170.3558 C.ar    1  UNL1        0.0198
      8 C         140.3877  141.5552  170.2075 C.ar    1  UNL1        0.0892
      9 N         141.1393  142.4490  171.1491 N.ar    1  UNL1       -0.2245
     10 C         142.3714  142.9335  170.4440 C.ar    1  UNL1        0.1567
     11 N         143.4111  143.8512  171.0157 N.pl3   1  UNL1       -0.3375
     12 S         142.3813  142.3392  169.0668 S.2     1  UNL1       -0.0520
     13 C         141.1553  141.4874  168.9206 C.ar    1  UNL1        0.0498
     14 C         140.6387  140.6587  167.7821 C.ar    1  UNL1        0.0126
     15 H         143.3160  144.1910  171.9348 H       1  UNL1        0.1442
     16 H         144.1886  144.1138  170.4718 H       1  UNL1        0.1442
     17 C         139.2313  137.8755  164.5179 C.3     1  UNL1        0.1166
     18 C         138.3422  139.8066  160.5517 C.ar    1  UNL1        0.0684
     19 C         139.1719  138.5581  160.6089 C.ar    1  UNL1        0.0100
     20 C         139.4682  137.9145  161.9309 C.ar    1  UNL1       -0.0019
     21 C         138.9350  138.5191  163.1958 C.ar    1  UNL1       -0.0025
     22 C         138.1054  139.7675  163.1387 C.ar    1  UNL1       -0.0019
     23 C         137.8090  140.4113  161.8166 C.ar    1  UNL1        0.0100
     24 N         137.7495  141.0939  157.9077 N.1     1  UNL1       -0.1908
     25 C         138.0459  140.4502  159.2297 C.1     1  UNL1        0.1004
@<TRIPOS>BOND
     1    24    25    3
     2    25    18    1
     3    18    19   ar
     4    19    20   ar
     5    20    21   ar
     6    21    17    1
     7    17     1    1
     8     1     2   am
     9     2     3    2
    10     2     5    1
    11     5     6   ar
    12     6     7   ar
    13     7     8   ar
    14     8     9   ar
    15     9    10   ar
    16    10    11    1
    17    10    12   ar
    18    12    13   ar
    19    13    14   ar
    20    21    22   ar
    21    22    23   ar
    22    23    18   ar
    23    14     5   ar
    24    13     8   ar
    25     1     4    1
    26    11    15    1
    27    11    16    1
@<TRIPOS>MOLECULE
*****
 25 27 0 0 0
SMALL
GASTEIGER

@<TRIPOS>ATOM
      1 N         140.1339  138.4450  165.5993 N.am    1  UNL1       -0.2969
      2 C         139.1665  139.2970  166.3662 C.2     1  UNL1        0.2461
      3 O         137.7418  139.4100  165.9107 O.2     1  UNL1       -0.2701
      4 H         141.0689  138.3709  165.8983 H       1  UNL1        0.1501
      5 C         139.6238  140.0361  167.5889 C.ar    1  UNL1        0.0540
      6 C         138.8450  139.9272  168.8662 C.ar    1  UNL1        0.0061
      7 C         139.3023  140.6663  170.0887 C.ar    1  UNL1        0.0198
      8 C         140.5384  141.5142  170.0339 C.ar    1  UNL1        0.0892
      9 N         141.2276  142.3519  171.0700 N.ar    1  UNL1       -0.2245
     10 C         142.4324  142.9785  170.4329 C.ar    1  UNL1        0.1567
     11 N         143.4102  143.8948  171.1071 N.pl3   1  UNL1       -0.3375
     12 S         142.4878  142.5280  169.0032 S.2     1  UNL1       -0.0520
     13 C         141.3173  141.6230  168.7566 C.ar    1  UNL1        0.0498
     14 C         140.8600  140.8840  167.5341 C.ar    1  UNL1        0.0126
     15 H         143.2884  144.1336  172.0544 H       1  UNL1        0.1442
     16 H         144.1737  144.2573  170.6023 H       1  UNL1        0.1442
     17 C         139.6765  137.7060  164.3766 C.3     1  UNL1        0.1166
     18 C         141.8545  138.2447  160.4758 C.ar    1  UNL1        0.0684
     19 C         140.3596  138.3605  160.5225 C.ar    1  UNL1        0.0100
     20 C         139.6337  138.1809  161.8227 C.ar    1  UNL1       -0.0019
     21 C         140.4025  137.8855  163.0764 C.ar    1  UNL1       -0.0025
     22 C         141.8973  137.7698  163.0298 C.ar    1  UNL1       -0.0019
     23 C         142.6233  137.9494  161.7295 C.ar    1  UNL1        0.0100
     24 N         143.3063  138.6039  157.8753 N.1     1  UNL1       -0.1908
     25 C         142.5804  138.4243  159.1756 C.1     1  UNL1        0.1004
@<TRIPOS>BOND
     1    24    25    3
     2    25    18    1
     3    18    19   ar
     4    19    20   ar
     5    20    21   ar
     6    21    17    1
     7    17     1    1
     8     1     2   am
     9     2     3    2
    10     2     5    1
    11     5     6   ar
    12     6     7   ar
    13     7     8   ar
    14     8     9   ar
    15     9    10   ar
    16    10    11    1
    17    10    12   ar
    18    12    13   ar
    19    13    14   ar
    20    21    22   ar
    21    22    23   ar
    22    23    18   ar
    23    14     5   ar
    24    13     8   ar
    25     1     4    1
    26    11    15    1
    27    11    16    1
@<TRIPOS>MOLECULE
*****
 25 27 0 0 0
SMALL
GASTEIGER

@<TRIPOS>ATOM
      1 N         141.0178  138.1866  165.3855 N.am    1  UNL1       -0.2969
      2 C         142.2328  138.7629  166.0501 C.2     1  UNL1        0.2461
      3 O         143.6013  138.4074  165.5494 O.2     1  UNL1       -0.2701
      4 H         140.1196  138.4199  165.7142 H       1  UNL1        0.1501
      5 C         142.0792  139.6947  167.2156 C.ar    1  UNL1        0.0540
      6 C         142.7614  139.3882  168.5158 C.ar    1  UNL1        0.0061
      7 C         142.6078  140.3200  169.6812 C.ar    1  UNL1        0.0198
      8 C         141.7721  141.5583  169.5463 C.ar    1  UNL1        0.0892
      9 N         141.4396  142.6552  170.5141 N.ar    1  UNL1       -0.2245
     10 C         140.5520  143.6395  169.8119 C.ar    1  UNL1        0.1567
     11 N         139.9807  144.8924  170.4069 N.pl3   1  UNL1       -0.3375
     12 S         140.3358  143.1510  168.4102 S.2     1  UNL1       -0.0520
     13 C         141.0898  141.8647  168.2461 C.ar    1  UNL1        0.0498
     14 C         141.2434  140.9329  167.0808 C.ar    1  UNL1        0.0126
     15 H         140.1811  145.1294  171.3412 H       1  UNL1        0.1442
     16 H         139.4055  145.4778  169.8630 H       1  UNL1        0.1442
     17 C         141.1714  137.2548  164.2201 C.3     1  UNL1        0.1166
     18 C         139.8224  138.5354  160.1225 C.ar    1  UNL1        0.0684
     19 C         141.2861  138.4043  160.4233 C.ar    1  UNL1        0.0100
     20 C         141.7357  137.9774  161.7892 C.ar    1  UNL1       -0.0019
     21 C         140.7217  137.6816  162.8542 C.ar    1  UNL1       -0.0025
     22 C         139.2581  137.8127  162.5534 C.ar    1  UNL1       -0.0019
     23 C         138.8084  138.2396  161.1875 C.ar    1  UNL1        0.0100
     24 N         138.9230  139.3891  157.3908 N.1     1  UNL1       -0.1908
     25 C         139.3727  138.9622  158.7567 C.1     1  UNL1        0.1004
@<TRIPOS>BOND
     1    24    25    3
     2    25    18    1
     3    18    19   ar
     4    19    20   ar
     5    20    21   ar
     6    21    17    1
     7    17     1    1
     8     1     2   am
     9     2     3    2
    10     2     5    1
    11     5     6   ar
    12     6     7   ar
    13     7     8   ar
    14     8     9   ar
    15     9    10   ar
    16    10    11    1
    17    10    12   ar
    18    12    13   ar
    19    13    14   ar
    20    21    22   ar
    21    22    23   ar
    22    23    18   ar
    23    14     5   ar
    24    13     8   ar
    25     1     4    1
    26    11    15    1
    27    11    16    1
@<TRIPOS>MOLECULE
*****
 25 27 0 0 0
SMALL
GASTEIGER

@<TRIPOS>ATOM
      1 N         140.0080  141.4082  163.7974 N.am    1  UNL1       -0.2969
      2 C         139.1888  142.5061  163.1861 C.2     1  UNL1        0.2461
      3 O         137.7805  142.7372  163.6480 O.2     1  UNL1       -0.2701
      4 H         140.9323  141.2566  163.4942 H       1  UNL1        0.1501
      5 C         139.7779  143.3729  162.1129 C.ar    1  UNL1        0.0540
      6 C         139.6340  144.8639  162.1899 C.ar    1  UNL1        0.0061
      7 C         140.2231  145.7307  161.1168 C.ar    1  UNL1        0.0198
      8 C         140.9561  145.1063  159.9666 C.ar    1  UNL1        0.0892
      9 N         141.6376  145.7003  158.7695 N.ar    1  UNL1       -0.2245
     10 C         142.2026  144.5762  157.9527 C.ar    1  UNL1        0.1567
     11 N         142.9660  144.7162  156.6690 N.pl3   1  UNL1       -0.3375
     12 S         141.8704  143.2876  158.6449 S.2     1  UNL1       -0.0520
     13 C         141.1000  143.6153  159.8896 C.ar    1  UNL1        0.0498
     14 C         140.5109  142.7485  160.9627 C.ar    1  UNL1        0.0126
     15 H         143.1347  145.6096  156.2915 H       1  UNL1        0.1442
     16 H         143.2982  143.9146  156.2040 H       1  UNL1        0.1442
     17 C         139.4189  140.5414  164.8705 C.3     1  UNL1        0.1166
     18 C         140.1713  141.4997  169.2025 C.ar    1  UNL1        0.0684
     19 C         139.5421  140.1923  168.8218 C.ar    1  UNL1        0.0100
     20 C         139.2913  139.8729  167.3779 C.ar    1  UNL1       -0.0019
     21 C         139.6697  140.8608  166.3145 C.ar    1  UNL1       -0.0025
     22 C         140.2989  142.1682  166.6951 C.ar    1  UNL1       -0.0019
     23 C         140.5497  142.4876  168.1391 C.ar    1  UNL1        0.0100
     24 N         140.6729  142.1385  172.0904 N.1     1  UNL1       -0.1908
     25 C         140.4221  141.8191  170.6464 C.1     1  UNL1        0.1004
@<TRIPOS>BOND
     1    24    25    3
     2    25    18    1
     3    18    19   ar
     4    19    20   ar
     5    20    21   ar
     6    21    17    1
     7    17     1    1
     8     1     2   am
     9     2     3    2
    10     2     5    1
    11     5     6   ar
    12     6     7   ar
    13     7     8   ar
    14     8     9   ar
    15     9    10   ar
    16    10    11    1
    17    10    12   ar
    18    12    13   ar
    19    13    14   ar
    20    21    22   ar
    21    22    23   ar
    22    23    18   ar
    23    14     5   ar
    24    13     8   ar
    25     1     4    1
    26    11    15    1
    27    11    16    1
@<TRIPOS>MOLECULE
*****
 25 27 0 0 0
SMALL
GASTEIGER

@<TRIPOS>ATOM
      1 N         139.1732  140.5364  163.4009 N.am    1  UNL1       -0.2969
      2 C         138.3262  141.4530  162.5689 C.2     1  UNL1        0.2461
      3 O         136.9199  141.7623  162.9892 O.2     1  UNL1       -0.2701
      4 H         140.0963  140.3335  163.1251 H       1  UNL1        0.1501
      5 C         138.8854  142.0603  161.3165 C.ar    1  UNL1        0.0540
      6 C         138.5193  141.4902  159.9782 C.ar    1  UNL1        0.0061
      7 C         139.0786  142.0975  158.7259 C.ar    1  UNL1        0.0198
      8 C         140.0039  143.2750  158.8118 C.ar    1  UNL1        0.0892
      9 N         140.7059  144.0788  157.7577 N.ar    1  UNL1       -0.2245
     10 C         141.5058  145.1458  158.4445 C.ar    1  UNL1        0.1567
     11 N         142.3630  146.1763  157.7711 N.pl3   1  UNL1       -0.3375
     12 S         141.2982  145.0013  159.9231 S.2     1  UNL1       -0.0520
     13 C         140.3700  143.8451  160.1500 C.ar    1  UNL1        0.0498
     14 C         139.8107  143.2378  161.4024 C.ar    1  UNL1        0.0126
     15 H         142.4362  146.1904  156.7894 H       1  UNL1        0.1442
     16 H         142.8523  146.8385  158.3107 H       1  UNL1        0.1442
     17 C         138.6140  139.9291  164.6534 C.3     1  UNL1        0.1166
     18 C         140.1290  141.2674  168.6738 C.ar    1  UNL1        0.0684
     19 C         140.3379  142.1337  167.4671 C.ar    1  UNL1        0.0100
     20 C         139.8329  141.6876  166.1270 C.ar    1  UNL1       -0.0019
     21 C         139.1190  140.3752  165.9935 C.ar    1  UNL1       -0.0025
     22 C         138.9101  139.5089  167.2000 C.ar    1  UNL1       -0.0019
     23 C         139.4151  139.9550  168.5402 C.ar    1  UNL1        0.0100
     24 N         141.1390  142.1596  171.3540 N.1     1  UNL1       -0.1908
     25 C         140.6340  141.7135  170.0139 C.1     1  UNL1        0.1004
@<TRIPOS>BOND
     1    24    25    3
     2    25    18    1
     3    18    19   ar
     4    19    20   ar
     5    20    21   ar
     6    21    17    1
     7    17     1    1
     8     1     2   am
     9     2     3    2
    10     2     5    1
    11     5     6   ar
    12     6     7   ar
    13     7     8   ar
    14     8     9   ar
    15     9    10   ar
    16    10    11    1
    17    10    12   ar
    18    12    13   ar
    19    13    14   ar
    20    21    22   ar
    21    22    23   ar
    22    23    18   ar
    23    14     5   ar
    24    13     8   ar
    25     1     4    1
    26    11    15    1
    27    11    16    1
@<TRIPOS>MOLECULE
*****
 25 27 0 0 0
SMALL
GASTEIGER

@<TRIPOS>ATOM
      1 N         138.3108  139.5525  165.8026 N.am    1  UNL1       -0.2969
      2 C         139.1092  138.8147  164.7691 C.2     1  UNL1        0.2461
      3 O         140.1669  137.8395  165.1938 O.2     1  UNL1       -0.2701
      4 H         137.6166  140.1925  165.5239 H       1  UNL1        0.1501
      5 C         138.8499  139.0520  163.3108 C.ar    1  UNL1        0.0540
      6 C         138.6247  137.8895  162.3901 C.ar    1  UNL1        0.0061
      7 C         138.3654  138.1269  160.9320 C.ar    1  UNL1        0.0198
      8 C         138.3313  139.5268  160.3944 C.ar    1  UNL1        0.0892
      9 N         138.1007  140.0666  159.0140 N.ar    1  UNL1       -0.2245
     10 C         138.1833  141.5628  159.0815 C.ar    1  UNL1        0.1567
     11 N         138.0140  142.5081  157.9293 N.pl3   1  UNL1       -0.3375
     12 S         138.4651  141.9477  160.5037 S.2     1  UNL1       -0.0520
     13 C         138.5566  140.6894  161.3151 C.ar    1  UNL1        0.0498
     14 C         138.8158  140.4520  162.7733 C.ar    1  UNL1        0.0126
     15 H         137.8304  142.1575  157.0278 H       1  UNL1        0.1442
     16 H         138.0864  143.4792  158.0745 H       1  UNL1        0.1442
     17 C         138.5701  139.3151  167.2609 C.3     1  UNL1        0.1166
     18 C         141.3532  142.0332  169.5228 C.ar    1  UNL1        0.0684
     19 C         140.2300  141.3446  170.2401 C.ar    1  UNL1        0.0100
     20 C         139.3023  140.4386  169.4861 C.ar    1  UNL1       -0.0019
     21 C         139.4978  140.2211  168.0149 C.ar    1  UNL1       -0.0025
     22 C         140.6209  140.9096  167.2976 C.ar    1  UNL1       -0.0019
     23 C         141.5487  141.8156  168.0516 C.ar    1  UNL1        0.0100
     24 N         143.2086  143.8451  171.0308 N.1     1  UNL1       -0.1908
     25 C         142.2809  142.9391  170.2768 C.1     1  UNL1        0.1004
@<TRIPOS>BOND
     1    24    25    3
     2    25    18    1
     3    18    19   ar
     4    19    20   ar
     5    20    21   ar
     6    21    17    1
     7    17     1    1
     8     1     2   am
     9     2     3    2
    10     2     5    1
    11     5     6   ar
    12     6     7   ar
    13     7     8   ar
    14     8     9   ar
    15     9    10   ar
    16    10    11    1
    17    10    12   ar
    18    12    13   ar
    19    13    14   ar
    20    21    22   ar
    21    22    23   ar
    22    23    18   ar
    23    14     5   ar
    24    13     8   ar
    25     1     4    1
    26    11    15    1
    27    11    16    1
@<TRIPOS>MOLECULE
*****
 25 27 0 0 0
SMALL
GASTEIGER

@<TRIPOS>ATOM
      1 N         139.9513  141.4110  163.6983 N.am    1  UNL1       -0.2969
      2 C         140.9612  140.9306  162.6987 C.2     1  UNL1        0.2461
      3 O         141.4823  139.5261  162.7746 O.2     1  UNL1       -0.2701
      4 H         139.6093  142.3328  163.6485 H       1  UNL1        0.1501
      5 C         141.4501  141.8549  161.6231 C.ar    1  UNL1        0.0540
      6 C         142.8952  141.8400  161.2212 C.ar    1  UNL1        0.0061
      7 C         143.3839  142.7643  160.1456 C.ar    1  UNL1        0.0198
      8 C         142.4277  143.7033  159.4720 C.ar    1  UNL1        0.0892
      9 N         142.6177  144.7218  158.3872 N.ar    1  UNL1       -0.2245
     10 C         141.2900  145.3661  158.1188 C.ar    1  UNL1        0.1567
     11 N         141.0201  146.4419  157.1088 N.pl3   1  UNL1       -0.3375
     12 S         140.2795  144.7458  159.0376 S.2     1  UNL1       -0.0520
     13 C         140.9827  143.7181  159.8739 C.ar    1  UNL1        0.0498
     14 C         140.4939  142.7939  160.9494 C.ar    1  UNL1        0.0126
     15 H         141.7529  146.7865  156.5490 H       1  UNL1        0.1442
     16 H         140.1101  146.8034  157.0059 H       1  UNL1        0.1442
     17 C         139.4625  140.4867  164.7740 C.3     1  UNL1        0.1166
     18 C         140.1449  141.5111  169.1023 C.ar    1  UNL1        0.0684
     19 C         140.5313  142.4870  168.0306 C.ar    1  UNL1        0.0100
     20 C         140.3038  142.1455  166.5879 C.ar    1  UNL1       -0.0019
     21 C         139.6899  140.8282  166.2167 C.ar    1  UNL1       -0.0025
     22 C         139.3035  139.8523  167.2883 C.ar    1  UNL1       -0.0019
     23 C         139.5310  140.1938  168.7312 C.ar    1  UNL1        0.0100
     24 N         140.5998  142.1941  171.9878 N.1     1  UNL1       -0.1908
     25 C         140.3723  141.8526  170.5451 C.1     1  UNL1        0.1004
@<TRIPOS>BOND
     1    24    25    3
     2    25    18    1
     3    18    19   ar
     4    19    20   ar
     5    20    21   ar
     6    21    17    1
     7    17     1    1
     8     1     2   am
     9     2     3    2
    10     2     5    1
    11     5     6   ar
    12     6     7   ar
    13     7     8   ar
    14     8     9   ar
    15     9    10   ar
    16    10    11    1
    17    10    12   ar
    18    12    13   ar
    19    13    14   ar
    20    21    22   ar
    21    22    23   ar
    22    23    18   ar
    23    14     5   ar
    24    13     8   ar
    25     1     4    1
    26    11    15    1
    27    11    16    1
@<TRIPOS>MOLECULE
*****
 25 27 0 0 0
SMALL
GASTEIGER

@<TRIPOS>ATOM
      1 N         142.5206  138.6602  165.3023 N.am    1  UNL1       -0.2969
      2 C         143.3424  139.1719  164.1566 C.2     1  UNL1        0.2461
      3 O         144.5836  139.9713  164.4220 O.2     1  UNL1       -0.2701
      4 H         141.7059  138.1356  165.1281 H       1  UNL1        0.1501
      5 C         142.9231  138.8843  162.7454 C.ar    1  UNL1        0.0540
      6 C         143.8333  138.1152  161.8344 C.ar    1  UNL1        0.0061
      7 C         143.4140  137.8276  160.4233 C.ar    1  UNL1        0.0198
      8 C         142.0843  138.3091  159.9231 C.ar    1  UNL1        0.0892
      9 N         141.4052  138.1779  158.5920 N.ar    1  UNL1       -0.2245
     10 C         140.0753  138.8658  158.6804 C.ar    1  UNL1        0.1567
     11 N         139.0654  138.9778  157.5768 N.pl3   1  UNL1       -0.3375
     12 S         139.9324  139.4222  160.0660 S.2     1  UNL1       -0.0520
     13 C         141.1740  139.0782  160.8340 C.ar    1  UNL1        0.0498
     14 C         141.5934  139.3658  162.2452 C.ar    1  UNL1        0.0126
     15 H         139.2514  138.5774  156.6969 H       1  UNL1        0.1442
     16 H         138.2166  139.4516  157.7325 H       1  UNL1        0.1442
     17 C         142.9399  138.9479  166.7135 C.3     1  UNL1        0.1166
     18 C         141.1924  142.4669  168.9073 C.ar    1  UNL1        0.0684
     19 C         140.9008  142.2721  167.4488 C.ar    1  UNL1        0.0100
     20 C         141.4833  141.0992  166.7176 C.ar    1  UNL1       -0.0019
     21 C         142.3574  140.1209  167.4448 C.ar    1  UNL1       -0.0025
     22 C         142.6491  140.3155  168.9032 C.ar    1  UNL1       -0.0019
     23 C         142.0666  141.4886  169.6345 C.ar    1  UNL1        0.0100
     24 N         140.0274  144.8129  170.3697 N.1     1  UNL1       -0.1908
     25 C         140.6099  143.6399  169.6385 C.1     1  UNL1        0.1004
@<TRIPOS>BOND
     1    24    25    3
     2    25    18    1
     3    18    19   ar
     4    19    20   ar
     5    20    21   ar
     6    21    17    1
     7    17     1    1
     8     1     2   am
     9     2     3    2
    10     2     5    1
    11     5     6   ar
    12     6     7   ar
    13     7     8   ar
    14     8     9   ar
    15     9    10   ar
    16    10    11    1
    17    10    12   ar
    18    12    13   ar
    19    13    14   ar
    20    21    22   ar
    21    22    23   ar
    22    23    18   ar
    23    14     5   ar
    24    13     8   ar
    25     1     4    1
    26    11    15    1
    27    11    16    1
@<TRIPOS>MOLECULE
*****
 25 27 0 0 0
SMALL
GASTEIGER

@<TRIPOS>ATOM
      1 N         139.6417  138.7846  164.0070 N.am    1  UNL1       -0.2969
      2 C         140.7965  137.8968  163.6490 C.2     1  UNL1        0.2461
      3 O         141.1650  136.7490  164.5417 O.2     1  UNL1       -0.2701
      4 H         139.3998  139.5379  163.4211 H       1  UNL1        0.1501
      5 C         141.5829  138.1568  162.3983 C.ar    1  UNL1        0.0540
      6 C         143.0800  138.2290  162.4552 C.ar    1  UNL1        0.0061
      7 C         143.8663  138.4890  161.2045 C.ar    1  UNL1        0.0198
      8 C         143.1555  138.6767  159.8971 C.ar    1  UNL1        0.0892
      9 N         143.6596  138.9448  158.5100 N.ar    1  UNL1       -0.2245
     10 C         142.4740  139.0382  157.5959 C.ar    1  UNL1        0.1567
     11 N         142.5175  139.2967  156.1189 N.pl3   1  UNL1       -0.3375
     12 S         141.2371  138.8279  158.4181 S.2     1  UNL1       -0.0520
     13 C         141.6583  138.6044  159.8403 C.ar    1  UNL1        0.0498
     14 C         140.8720  138.3444  161.0909 C.ar    1  UNL1        0.0126
     15 H         143.3828  139.4226  155.6665 H       1  UNL1        0.1442
     16 H         141.6808  139.3404  155.6020 H       1  UNL1        0.1442
     17 C         138.8553  138.5246  165.2577 C.3     1  UNL1        0.1166
     18 C         139.9626  140.6134  169.0866 C.ar    1  UNL1        0.0684
     19 C         138.6505  139.8947  168.9766 C.ar    1  UNL1        0.0100
     20 C         138.2814  139.1984  167.7003 C.ar    1  UNL1       -0.0019
     21 C         139.2244  139.2209  166.5340 C.ar    1  UNL1       -0.0025
     22 C         140.5364  139.9395  166.6439 C.ar    1  UNL1       -0.0019
     23 C         140.9055  140.6358  167.9203 C.ar    1  UNL1        0.0100
     24 N         140.7007  142.0058  171.6392 N.1     1  UNL1       -0.1908
     25 C         140.3316  141.3096  170.3629 C.1     1  UNL1        0.1004
@<TRIPOS>BOND
     1    24    25    3
     2    25    18    1
     3    18    19   ar
     4    19    20   ar
     5    20    21   ar
     6    21    17    1
     7    17     1    1
     8     1     2   am
     9     2     3    2
    10     2     5    1
    11     5     6   ar
    12     6     7   ar
    13     7     8   ar
    14     8     9   ar
    15     9    10   ar
    16    10    11    1
    17    10    12   ar
    18    12    13   ar
    19    13    14   ar
    20    21    22   ar
    21    22    23   ar
    22    23    18   ar
    23    14     5   ar
    24    13     8   ar
    25     1     4    1
    26    11    15    1
    27    11    16    1
