@<TRIPOS>MOLECULE
*****
 43 48 0 0 0
SMALL
GASTEIGER

@<TRIPOS>ATOM
      1 N         142.7488  140.7511  161.1010 N.3     1  UNL1       -0.2702
      2 C         142.5036  139.3074  161.4260 C.3     1  UNL1        0.0740
      3 C         141.9173  138.3946  160.3902 C.3     1  UNL1        0.0372
      4 C         141.5763  138.9254  159.0294 C.3     1  UNL1        0.0797
      5 C         141.8215  140.3691  158.7043 C.3     1  UNL1        0.0372
      6 C         142.4078  141.2819  159.7402 C.3     1  UNL1        0.0740
      7 C         142.7061  142.1839  166.5399 C.ar    1  UNL1        0.0174
      8 C         141.8830  141.1180  165.8793 C.ar    1  UNL1        0.0012
      9 C         142.0222  140.8677  164.4069 C.ar    1  UNL1       -0.0032
     10 C         142.9846  141.6831  163.5952 C.ar    1  UNL1       -0.0117
     11 C         143.8077  142.7489  164.2558 C.ar    1  UNL1       -0.0248
     12 C         143.6684  142.9993  165.7282 C.ar    1  UNL1       -0.0030
     13 C         144.6669  143.3885  163.2058 C.3     1  UNL1        0.0278
     14 C         144.3749  142.7180  161.8962 C.3     1  UNL1        0.0251
     15 C         143.3351  141.6640  162.1368 C.3     1  UNL1        0.0801
     16 C         139.7016  142.8847  170.7211 C.3     1  UNL1        0.0522
     17 C         141.0646  142.7847  170.1029 C.ar    1  UNL1        0.0626
     18 C         141.2038  142.5343  168.6305 C.ar    1  UNL1        0.0339
     19 C         142.5668  142.4343  168.0124 C.ar    1  UNL1        0.0842
     20 N         143.7906  142.5847  168.8665 N.ar    1  UNL1       -0.2240
     21 C         143.6514  142.8351  170.3389 C.ar    1  UNL1        0.1985
     22 N         142.2884  142.9351  170.9571 N.ar    1  UNL1       -0.2283
     23 N         140.9900  138.0126  157.9936 N.am    1  UNL1       -0.2640
     24 C         139.5110  138.0140  157.7432 C.3     1  UNL1        0.1164
     25 C         141.8826  137.0982  157.2081 C.2     1  UNL1        0.3042
     26 O         143.3616  137.0966  157.4584 O.2     1  UNL1       -0.2526
     27 N         141.2964  136.1852  156.1722 N.am    1  UNL1       -0.2866
     28 H         140.3257  136.1862  156.0079 H       1  UNL1        0.1512
     29 C         142.1891  135.2708  155.3867 C.3     1  UNL1        0.0964
     30 C         142.5206  135.5904  153.9592 C.3     1  UNL1        0.0262
     31 C         142.7503  134.0368  156.0289 C.ar    1  UNL1        0.0070
     32 C         143.8918  134.1474  156.9957 C.ar    1  UNL1       -0.0012
     33 C         144.4529  132.9134  157.6379 C.ar    1  UNL1        0.0089
     34 C         143.8725  131.5689  157.3132 C.ar    1  UNL1        0.0530
     35 C         142.7311  131.4583  156.3463 C.ar    1  UNL1        0.0755
     36 CL        142.1507  130.1138  156.0216 Cl      1  UNL1       -0.0807
     37 C         142.1699  132.6923  155.7042 C.ar    1  UNL1        0.0664
     38 CL        141.0285  132.5818  154.7374 Cl      1  UNL1       -0.0816
     39 C         144.4337  130.3348  157.9553 C.1     1  UNL1       -0.0635
     40 C         144.9947  129.1007  158.5974 C.1     1  UNL1       -0.0874
     41 C         145.5558  127.8667  159.2395 C.3     1  UNL1        0.0645
     42 C         145.7594  127.0133  160.4562 C.3     1  UNL1        0.0140
     43 C         146.3242  126.5827  159.1350 C.3     1  UNL1        0.0140
@<TRIPOS>BOND
     1    16    17    1
     2    17    18   ar
     3    18    19   ar
     4    19     7    1
     5     7     8   ar
     6     8     9   ar
     7     9    10   ar
     8    10    11   ar
     9    11    12   ar
    10    11    13    1
    11    13    14    1
    12    14    15    1
    13    15     1    1
    14     1     2    1
    15     2     3    1
    16     3     4    1
    17     4    23    1
    18    23    24    1
    19    23    25   am
    20    25    26    2
    21    25    27   am
    22    27    29    1
    23    29    30    1
    24    29    31    1
    25    31    32   ar
    26    32    33   ar
    27    33    34   ar
    28    34    39    1
    29    39    40    3
    30    40    41    1
    31    41    42    1
    32    42    43    1
    33    34    35   ar
    34    35    36    1
    35    35    37   ar
    36    37    38    1
    37     4     5    1
    38     5     6    1
    39    19    20   ar
    40    20    21   ar
    41    21    22   ar
    42    22    17   ar
    43    12     7   ar
    44     6     1    1
    45    15    10    1
    46    37    31   ar
    47    43    41    1
    48    27    28    1
@<TRIPOS>MOLECULE
*****
 43 48 0 0 0
SMALL
GASTEIGER

@<TRIPOS>ATOM
      1 N         143.6215  141.6417  161.7797 N.3     1  UNL1       -0.2702
      2 C         144.1560  140.2529  161.5909 C.3     1  UNL1        0.0740
      3 C         144.1039  139.6067  160.2383 C.3     1  UNL1        0.0372
      4 C         143.5174  140.3493  159.0744 C.3     1  UNL1        0.0797
      5 C         142.9830  141.7381  159.2631 C.3     1  UNL1        0.0372
      6 C         143.0350  142.3842  160.6158 C.3     1  UNL1        0.0740
      7 C         141.9376  141.2735  167.1337 C.ar    1  UNL1        0.0174
      8 C         141.6228  140.3201  166.0194 C.ar    1  UNL1        0.0012
      9 C         142.1587  140.5736  164.6415 C.ar    1  UNL1       -0.0032
     10 C         143.0094  141.7806  164.3780 C.ar    1  UNL1       -0.0117
     11 C         143.3242  142.7341  165.4923 C.ar    1  UNL1       -0.0248
     12 C         142.7883  142.4805  166.8702 C.ar    1  UNL1       -0.0030
     13 C         144.1828  143.8307  164.9354 C.3     1  UNL1        0.0278
     14 C         144.3987  143.5550  163.4768 C.3     1  UNL1        0.0251
     15 C         143.6735  142.2879  163.1323 C.3     1  UNL1        0.0801
     16 C         138.0159  139.9041  170.2554 C.3     1  UNL1        0.0522
     17 C         139.4408  140.3353  170.0725 C.ar    1  UNL1        0.0626
     18 C         139.9767  140.5888  168.6945 C.ar    1  UNL1        0.0339
     19 C         141.4017  141.0200  168.5116 C.ar    1  UNL1        0.0842
     20 N         142.2908  141.1977  169.7065 N.ar    1  UNL1       -0.2240
     21 C         141.7550  140.9442  171.0844 C.ar    1  UNL1        0.1985
     22 N         140.3300  140.5130  171.2674 N.ar    1  UNL1       -0.2283
     23 N         143.4654  139.7030  157.7218 N.am    1  UNL1       -0.2640
     24 C         144.2921  140.2509  156.5964 C.3     1  UNL1        0.1164
     25 C         142.5867  138.5088  157.4944 C.2     1  UNL1        0.3042
     26 O         141.7600  137.9609  158.6197 O.2     1  UNL1       -0.2526
     27 N         142.5346  137.8624  156.1418 N.am    1  UNL1       -0.2866
     28 H         143.0772  138.2220  155.4032 H       1  UNL1        0.1512
     29 C         141.6559  136.6682  155.9145 C.3     1  UNL1        0.0964
     30 C         140.1686  136.8386  155.8202 C.3     1  UNL1        0.0262
     31 C         142.2645  135.3037  155.7814 C.ar    1  UNL1        0.0070
     32 C         142.9949  134.6920  156.9400 C.ar    1  UNL1       -0.0012
     33 C         143.6035  133.3275  156.8068 C.ar    1  UNL1        0.0089
     34 C         143.4817  132.5748  155.5151 C.ar    1  UNL1        0.0530
     35 C         142.7514  133.1865  154.3565 C.ar    1  UNL1        0.0755
     36 CL        142.6296  132.4337  153.0648 Cl      1  UNL1       -0.0807
     37 C         142.1428  134.5510  154.4897 C.ar    1  UNL1        0.0664
     38 CL        141.4124  135.1627  153.3311 Cl      1  UNL1       -0.0816
     39 C         144.0903  131.2103  155.3819 C.1     1  UNL1       -0.0635
     40 C         144.6990  129.8458  155.2488 C.1     1  UNL1       -0.0874
     41 C         145.3076  128.4813  155.1157 C.3     1  UNL1        0.0645
     42 C         145.9112  127.2610  155.7454 C.3     1  UNL1        0.0140
     43 C         145.7582  127.3382  154.2553 C.3     1  UNL1        0.0140
@<TRIPOS>BOND
     1    16    17    1
     2    17    18   ar
     3    18    19   ar
     4    19     7    1
     5     7     8   ar
     6     8     9   ar
     7     9    10   ar
     8    10    11   ar
     9    11    12   ar
    10    11    13    1
    11    13    14    1
    12    14    15    1
    13    15     1    1
    14     1     2    1
    15     2     3    1
    16     3     4    1
    17     4    23    1
    18    23    24    1
    19    23    25   am
    20    25    26    2
    21    25    27   am
    22    27    29    1
    23    29    30    1
    24    29    31    1
    25    31    32   ar
    26    32    33   ar
    27    33    34   ar
    28    34    39    1
    29    39    40    3
    30    40    41    1
    31    41    42    1
    32    42    43    1
    33    34    35   ar
    34    35    36    1
    35    35    37   ar
    36    37    38    1
    37     4     5    1
    38     5     6    1
    39    19    20   ar
    40    20    21   ar
    41    21    22   ar
    42    22    17   ar
    43    12     7   ar
    44     6     1    1
    45    15    10    1
    46    37    31   ar
    47    43    41    1
    48    27    28    1
@<TRIPOS>MOLECULE
*****
 43 48 0 0 0
SMALL
GASTEIGER

@<TRIPOS>ATOM
      1 N         142.5174  137.2369  156.7183 N.3     1  UNL1       -0.2702
      2 C         142.7631  138.3686  155.7649 C.3     1  UNL1        0.0740
      3 C         143.1043  139.7313  156.2905 C.3     1  UNL1        0.0372
      4 C         143.1998  139.9625  157.7695 C.3     1  UNL1        0.0797
      5 C         142.9542  138.8309  158.7230 C.3     1  UNL1        0.0372
      6 C         142.6130  137.4681  158.1973 C.3     1  UNL1        0.0740
      7 C         143.7984  131.7638  156.9189 C.ar    1  UNL1        0.0174
      8 C         144.4582  132.8752  157.6801 C.ar    1  UNL1        0.0012
      9 C         143.9857  134.2879  157.5047 C.ar    1  UNL1       -0.0032
     10 C         142.8534  134.5893  156.5681 C.ar    1  UNL1       -0.0117
     11 C         142.1936  133.4779  155.8070 C.ar    1  UNL1       -0.0248
     12 C         142.6661  132.0651  155.9824 C.ar    1  UNL1       -0.0030
     13 C         141.1086  134.0757  154.9612 C.3     1  UNL1        0.0278
     14 C         141.0978  135.5566  155.1996 C.3     1  UNL1        0.0251
     15 C         142.1762  135.8741  156.1928 C.3     1  UNL1        0.0801
     16 C         145.1502  127.8236  160.0251 C.3     1  UNL1        0.0522
     17 C         144.9468  128.3808  158.6474 C.ar    1  UNL1        0.0626
     18 C         144.4743  129.7937  158.4720 C.ar    1  UNL1        0.0339
     19 C         144.2708  130.3509  157.0943 C.ar    1  UNL1        0.0842
     20 N         144.5398  129.4953  155.8920 N.ar    1  UNL1       -0.2240
     21 C         145.0123  128.0826  156.0673 C.ar    1  UNL1        0.1985
     22 N         145.2157  127.5253  157.4450 N.ar    1  UNL1       -0.2283
     23 N         143.5410  141.3254  158.2951 N.am    1  UNL1       -0.2640
     24 C         144.9006  141.9073  158.0441 C.3     1  UNL1        0.1164
     25 C         142.5227  142.1063  159.0716 C.2     1  UNL1        0.3042
     26 O         141.1631  141.5244  159.3227 O.2     1  UNL1       -0.2526
     27 N         142.8638  143.4692  159.5973 N.am    1  UNL1       -0.2866
     28 H         143.7561  143.8512  159.4325 H       1  UNL1        0.1512
     29 C         141.8455  144.2502  160.3738 C.3     1  UNL1        0.0964
     30 C         141.0953  145.3689  159.7137 C.3     1  UNL1        0.0262
     31 C         141.5773  143.9123  161.8105 C.ar    1  UNL1        0.0070
     32 C         140.1717  143.6691  162.2740 C.ar    1  UNL1       -0.0012
     33 C         139.9037  143.3313  163.7107 C.ar    1  UNL1        0.0089
     34 C         141.0413  143.2367  164.6838 C.ar    1  UNL1        0.0530
     35 C         142.4469  143.4800  164.2203 C.ar    1  UNL1        0.0755
     36 CL        143.5845  143.3855  165.1934 Cl      1  UNL1       -0.0807
     37 C         142.7150  143.8178  162.7836 C.ar    1  UNL1        0.0664
     38 CL        144.1206  144.0611  162.3200 Cl      1  UNL1       -0.0816
     39 C         140.7732  142.8989  166.1205 C.1     1  UNL1       -0.0635
     40 C         140.5052  142.5612  167.5572 C.1     1  UNL1       -0.0874
     41 C         140.2372  142.2234  168.9939 C.3     1  UNL1        0.0645
     42 C         139.7595  141.2525  170.0328 C.3     1  UNL1        0.0140
     43 C         140.2507  142.6091  170.4434 C.3     1  UNL1        0.0140
@<TRIPOS>BOND
     1    16    17    1
     2    17    18   ar
     3    18    19   ar
     4    19     7    1
     5     7     8   ar
     6     8     9   ar
     7     9    10   ar
     8    10    11   ar
     9    11    12   ar
    10    11    13    1
    11    13    14    1
    12    14    15    1
    13    15     1    1
    14     1     2    1
    15     2     3    1
    16     3     4    1
    17     4    23    1
    18    23    24    1
    19    23    25   am
    20    25    26    2
    21    25    27   am
    22    27    29    1
    23    29    30    1
    24    29    31    1
    25    31    32   ar
    26    32    33   ar
    27    33    34   ar
    28    34    39    1
    29    39    40    3
    30    40    41    1
    31    41    42    1
    32    42    43    1
    33    34    35   ar
    34    35    36    1
    35    35    37   ar
    36    37    38    1
    37     4     5    1
    38     5     6    1
    39    19    20   ar
    40    20    21   ar
    41    21    22   ar
    42    22    17   ar
    43    12     7   ar
    44     6     1    1
    45    15    10    1
    46    37    31   ar
    47    43    41    1
    48    27    28    1
@<TRIPOS>MOLECULE
*****
 43 48 0 0 0
SMALL
GASTEIGER

@<TRIPOS>ATOM
      1 N         142.0987  144.2088  161.5601 N.3     1  UNL1       -0.2702
      2 C         142.6830  143.6209  160.3099 C.3     1  UNL1        0.0740
      3 C         142.0219  143.8659  158.9860 C.3     1  UNL1        0.0372
      4 C         140.7766  144.6987  158.9121 C.3     1  UNL1        0.0797
      5 C         140.1922  145.2866  160.1623 C.3     1  UNL1        0.0372
      6 C         140.8533  145.0416  161.4863 C.3     1  UNL1        0.0740
      7 C         141.6274  141.6477  166.5456 C.ar    1  UNL1        0.0174
      8 C         140.6384  141.6204  165.4181 C.ar    1  UNL1        0.0012
      9 C         140.9273  142.3659  164.1490 C.ar    1  UNL1       -0.0032
     10 C         142.2051  143.1387  164.0073 C.ar    1  UNL1       -0.0117
     11 C         143.1940  143.1660  165.1348 C.ar    1  UNL1       -0.0248
     12 C         142.9052  142.4205  166.4039 C.ar    1  UNL1       -0.0030
     13 C         144.3598  144.0081  164.7085 C.3     1  UNL1        0.0278
     14 C         144.0914  144.5012  163.3175 C.3     1  UNL1        0.0251
     15 C         142.7597  143.9639  162.8841 C.3     1  UNL1        0.0801
     16 C         138.2843  140.1889  170.2464 C.3     1  UNL1        0.0522
     17 C         139.6670  140.1728  169.6652 C.ar    1  UNL1        0.0626
     18 C         139.9558  140.9183  168.3960 C.ar    1  UNL1        0.0339
     19 C         141.3385  140.9022  167.8148 C.ar    1  UNL1        0.0842
     20 N         142.4324  140.1406  168.5028 N.ar    1  UNL1       -0.2240
     21 C         142.1437  139.3952  169.7720 C.ar    1  UNL1        0.1985
     22 N         140.7609  139.4112  170.3532 N.ar    1  UNL1       -0.2283
     23 N         140.1155  144.9436  157.5881 N.am    1  UNL1       -0.2640
     24 C         139.9408  146.3458  157.0849 C.3     1  UNL1        0.1164
     25 C         139.6292  143.7862  156.7672 C.2     1  UNL1        0.3042
     26 O         139.8039  142.3839  157.2703 O.2     1  UNL1       -0.2526
     27 N         138.9681  144.0310  155.4431 N.am    1  UNL1       -0.2866
     28 H         138.8534  144.9513  155.1129 H       1  UNL1        0.1512
     29 C         138.4817  142.8736  154.6222 C.3     1  UNL1        0.0964
     30 C         139.2604  142.4267  153.4205 C.3     1  UNL1        0.0262
     31 C         137.2167  142.1631  155.0030 C.ar    1  UNL1        0.0070
     32 C         137.1457  141.3959  156.2900 C.ar    1  UNL1       -0.0012
     33 C         135.8806  140.6855  156.6707 C.ar    1  UNL1        0.0089
     34 C         134.6867  140.7423  155.7645 C.ar    1  UNL1        0.0530
     35 C         134.7577  141.5095  154.4776 C.ar    1  UNL1        0.0755
     36 CL        133.5637  141.5663  153.5714 Cl      1  UNL1       -0.0807
     37 C         136.0227  142.2199  154.0968 C.ar    1  UNL1        0.0664
     38 CL        136.0938  142.9872  152.8099 Cl      1  UNL1       -0.0816
     39 C         133.4216  140.0319  156.1453 C.1     1  UNL1       -0.0635
     40 C         132.1565  139.3215  156.5260 C.1     1  UNL1       -0.0874
     41 C         130.8915  138.6111  156.9067 C.3     1  UNL1        0.0645
     42 C         129.6460  137.8743  156.5117 C.3     1  UNL1        0.0140
     43 C         129.9458  138.1174  157.9612 C.3     1  UNL1        0.0140
@<TRIPOS>BOND
     1    16    17    1
     2    17    18   ar
     3    18    19   ar
     4    19     7    1
     5     7     8   ar
     6     8     9   ar
     7     9    10   ar
     8    10    11   ar
     9    11    12   ar
    10    11    13    1
    11    13    14    1
    12    14    15    1
    13    15     1    1
    14     1     2    1
    15     2     3    1
    16     3     4    1
    17     4    23    1
    18    23    24    1
    19    23    25   am
    20    25    26    2
    21    25    27   am
    22    27    29    1
    23    29    30    1
    24    29    31    1
    25    31    32   ar
    26    32    33   ar
    27    33    34   ar
    28    34    39    1
    29    39    40    3
    30    40    41    1
    31    41    42    1
    32    42    43    1
    33    34    35   ar
    34    35    36    1
    35    35    37   ar
    36    37    38    1
    37     4     5    1
    38     5     6    1
    39    19    20   ar
    40    20    21   ar
    41    21    22   ar
    42    22    17   ar
    43    12     7   ar
    44     6     1    1
    45    15    10    1
    46    37    31   ar
    47    43    41    1
    48    27    28    1
@<TRIPOS>MOLECULE
*****
 43 48 0 0 0
SMALL
GASTEIGER

@<TRIPOS>ATOM
      1 N         138.8525  142.2002  161.2204 N.3     1  UNL1       -0.2702
      2 C         138.3034  140.8175  161.0285 C.3     1  UNL1        0.0740
      3 C         138.4177  140.1439  159.6932 C.3     1  UNL1        0.0372
      4 C         139.0810  140.8528  158.5498 C.3     1  UNL1        0.0797
      5 C         139.6301  142.2355  158.7417 C.3     1  UNL1        0.0372
      6 C         139.5159  142.9091  160.0770 C.3     1  UNL1        0.0740
      7 C         140.5295  142.1111  166.5885 C.ar    1  UNL1        0.0174
      8 C         140.9299  141.1596  165.5004 C.ar    1  UNL1        0.0012
      9 C         140.3828  141.3320  164.1144 C.ar    1  UNL1       -0.0032
     10 C         139.4353  142.4561  163.8166 C.ar    1  UNL1       -0.0117
     11 C         139.0348  143.4077  164.9048 C.ar    1  UNL1       -0.0248
     12 C         139.5819  143.2352  166.2907 C.ar    1  UNL1       -0.0030
     13 C         138.0904  144.4136  164.3164 C.3     1  UNL1        0.0278
     14 C         137.9072  144.0837  162.8647 C.3     1  UNL1        0.0251
     15 C         138.7383  142.8739  162.5557 C.3     1  UNL1        0.0801
     16 C         144.4319  142.6193  169.9816 C.3     1  UNL1        0.0522
     17 C         143.0278  142.1928  169.6711 C.ar    1  UNL1        0.0626
     18 C         142.4807  142.3652  168.2851 C.ar    1  UNL1        0.0339
     19 C         141.0766  141.9387  167.9745 C.ar    1  UNL1        0.0842
     20 N         140.2194  141.3397  169.0500 N.ar    1  UNL1       -0.2240
     21 C         140.7665  141.1673  170.4360 C.ar    1  UNL1        0.1985
     22 N         142.1707  141.5938  170.7466 N.ar    1  UNL1       -0.2283
     23 N         139.1952  140.1791  157.2145 N.am    1  UNL1       -0.2640
     24 C         138.0280  140.1784  156.2724 C.3     1  UNL1        0.1164
     25 C         140.4768  139.5061  156.8212 C.2     1  UNL1        0.3042
     26 O         141.6441  139.5067  157.7633 O.2     1  UNL1       -0.2526
     27 N         140.5911  138.8323  155.4859 N.am    1  UNL1       -0.2866
     28 H         139.8250  138.8318  154.8676 H       1  UNL1        0.1512
     29 C         141.8726  138.1592  155.0926 C.3     1  UNL1        0.0964
     30 C         142.8754  138.8897  154.2495 C.3     1  UNL1        0.0262
     31 C         142.1513  136.7557  155.5425 C.ar    1  UNL1        0.0070
     32 C         143.0534  136.5092  156.7153 C.ar    1  UNL1       -0.0012
     33 C         143.3321  135.1056  157.1651 C.ar    1  UNL1        0.0089
     34 C         142.7086  133.9486  156.4421 C.ar    1  UNL1        0.0530
     35 C         141.8065  134.1951  155.2694 C.ar    1  UNL1        0.0755
     36 CL        141.1831  133.0381  154.5464 Cl      1  UNL1       -0.0807
     37 C         141.5279  135.5987  154.8196 C.ar    1  UNL1        0.0664
     38 CL        140.6258  135.8453  153.6468 Cl      1  UNL1       -0.0816
     39 C         142.9873  132.5450  156.8920 C.1     1  UNL1       -0.0635
     40 C         143.2658  131.1414  157.3418 C.1     1  UNL1       -0.0874
     41 C         143.5445  129.7378  157.7916 C.3     1  UNL1        0.0645
     42 C         143.6722  128.7280  158.8934 C.3     1  UNL1        0.0140
     43 C         143.8995  128.3166  157.4689 C.3     1  UNL1        0.0140
@<TRIPOS>BOND
     1    16    17    1
     2    17    18   ar
     3    18    19   ar
     4    19     7    1
     5     7     8   ar
     6     8     9   ar
     7     9    10   ar
     8    10    11   ar
     9    11    12   ar
    10    11    13    1
    11    13    14    1
    12    14    15    1
    13    15     1    1
    14     1     2    1
    15     2     3    1
    16     3     4    1
    17     4    23    1
    18    23    24    1
    19    23    25   am
    20    25    26    2
    21    25    27   am
    22    27    29    1
    23    29    30    1
    24    29    31    1
    25    31    32   ar
    26    32    33   ar
    27    33    34   ar
    28    34    39    1
    29    39    40    3
    30    40    41    1
    31    41    42    1
    32    42    43    1
    33    34    35   ar
    34    35    36    1
    35    35    37   ar
    36    37    38    1
    37     4     5    1
    38     5     6    1
    39    19    20   ar
    40    20    21   ar
    41    21    22   ar
    42    22    17   ar
    43    12     7   ar
    44     6     1    1
    45    15    10    1
    46    37    31   ar
    47    43    41    1
    48    27    28    1
@<TRIPOS>MOLECULE
*****
 43 48 0 0 0
SMALL
GASTEIGER

@<TRIPOS>ATOM
      1 N         140.8140  138.3581  161.7940 N.3     1  UNL1       -0.2702
      2 C         139.9468  138.7167  160.6238 C.3     1  UNL1        0.0740
      3 C         140.5164  138.7028  159.2363 C.3     1  UNL1        0.0372
      4 C         141.9530  138.3303  159.0189 C.3     1  UNL1        0.0797
      5 C         142.8202  137.9717  160.1891 C.3     1  UNL1        0.0372
      6 C         142.2506  137.9856  161.5767 C.3     1  UNL1        0.0740
      7 C         141.2715  140.5725  166.9441 C.ar    1  UNL1        0.0174
      8 C         142.1309  140.8718  165.7517 C.ar    1  UNL1        0.0012
      9 C         141.8660  140.1847  164.4449 C.ar    1  UNL1       -0.0032
     10 C         140.7417  139.1984  164.3306 C.ar    1  UNL1       -0.0117
     11 C         139.8824  138.8991  165.5230 C.ar    1  UNL1       -0.0248
     12 C         140.1473  139.5861  166.8297 C.ar    1  UNL1       -0.0030
     13 C         138.8540  137.8877  165.1111 C.3     1  UNL1        0.0278
     14 C         139.0779  137.5619  163.6640 C.3     1  UNL1        0.0251
     15 C         140.2445  138.3720  163.1816 C.3     1  UNL1        0.0801
     16 C         144.5708  142.8885  170.2231 C.3     1  UNL1        0.0522
     17 C         143.1860  142.4176  169.8905 C.ar    1  UNL1        0.0626
     18 C         142.9212  141.7305  168.5836 C.ar    1  UNL1        0.0339
     19 C         141.5364  141.2596  168.2510 C.ar    1  UNL1        0.0842
     20 N         140.4165  141.4757  169.2252 N.ar    1  UNL1       -0.2240
     21 C         140.6813  142.1627  170.5320 C.ar    1  UNL1        0.1985
     22 N         142.0661  142.6337  170.8647 N.ar    1  UNL1       -0.2283
     23 N         142.5225  138.3164  157.6313 N.am    1  UNL1       -0.2640
     24 C         142.6582  137.0199  156.8891 C.3     1  UNL1        0.1164
     25 C         142.9564  139.5990  156.9858 C.2     1  UNL1        0.3042
     26 O         142.8207  140.8955  157.7279 O.2     1  UNL1       -0.2526
     27 N         143.5259  139.5853  155.5981 N.am    1  UNL1       -0.2866
     28 H         143.6149  138.7344  155.1110 H       1  UNL1        0.1512
     29 C         143.9597  140.8679  154.9526 C.3     1  UNL1        0.0964
     30 C         142.9331  141.8407  154.4529 C.3     1  UNL1        0.0262
     31 C         145.4202  141.1776  154.8068 C.ar    1  UNL1        0.0070
     32 C         146.1193  140.9019  153.5087 C.ar    1  UNL1       -0.0012
     33 C         147.5798  141.2117  153.3630 C.ar    1  UNL1        0.0089
     34 C         148.3410  141.7969  154.5154 C.ar    1  UNL1        0.0530
     35 C         147.6418  142.0725  155.8135 C.ar    1  UNL1        0.0755
     36 CL        148.4030  142.6578  156.9659 Cl      1  UNL1       -0.0807
     37 C         146.1814  141.7628  155.9592 C.ar    1  UNL1        0.0664
     38 CL        145.4821  142.0384  157.2573 Cl      1  UNL1       -0.0816
     39 C         149.8014  142.1066  154.3697 C.1     1  UNL1       -0.0635
     40 C         151.2619  142.4163  154.2239 C.1     1  UNL1       -0.0874
     41 C         152.7223  142.7260  154.0782 C.3     1  UNL1        0.0645
     42 C         154.1159  142.2866  153.7393 C.3     1  UNL1        0.0140
     43 C         153.8582  143.7018  154.1647 C.3     1  UNL1        0.0140
@<TRIPOS>BOND
     1    16    17    1
     2    17    18   ar
     3    18    19   ar
     4    19     7    1
     5     7     8   ar
     6     8     9   ar
     7     9    10   ar
     8    10    11   ar
     9    11    12   ar
    10    11    13    1
    11    13    14    1
    12    14    15    1
    13    15     1    1
    14     1     2    1
    15     2     3    1
    16     3     4    1
    17     4    23    1
    18    23    24    1
    19    23    25   am
    20    25    26    2
    21    25    27   am
    22    27    29    1
    23    29    30    1
    24    29    31    1
    25    31    32   ar
    26    32    33   ar
    27    33    34   ar
    28    34    39    1
    29    39    40    3
    30    40    41    1
    31    41    42    1
    32    42    43    1
    33    34    35   ar
    34    35    36    1
    35    35    37   ar
    36    37    38    1
    37     4     5    1
    38     5     6    1
    39    19    20   ar
    40    20    21   ar
    41    21    22   ar
    42    22    17   ar
    43    12     7   ar
    44     6     1    1
    45    15    10    1
    46    37    31   ar
    47    43    41    1
    48    27    28    1
@<TRIPOS>MOLECULE
*****
 43 48 0 0 0
SMALL
GASTEIGER

@<TRIPOS>ATOM
      1 N         140.1234  141.0986  161.3838 N.3     1  UNL1       -0.2702
      2 C         140.0785  142.5973  161.3421 C.3     1  UNL1        0.0740
      3 C         140.5803  143.3293  160.1328 C.3     1  UNL1        0.0372
      4 C         141.1269  142.5626  158.9652 C.3     1  UNL1        0.0797
      5 C         141.1717  141.0638  159.0068 C.3     1  UNL1        0.0372
      6 C         140.6700  140.3319  160.2161 C.3     1  UNL1        0.0740
      7 C         140.3024  140.8013  166.9977 C.ar    1  UNL1        0.0174
      8 C         141.0273  141.7786  166.1205 C.ar    1  UNL1        0.0012
      9 C         140.8637  141.7140  164.6309 C.ar    1  UNL1       -0.0032
     10 C         139.9753  140.6721  164.0184 C.ar    1  UNL1       -0.0117
     11 C         139.2504  139.6948  164.8956 C.ar    1  UNL1       -0.0248
     12 C         139.4139  139.7594  166.3852 C.ar    1  UNL1       -0.0030
     13 C         138.4487  138.7853  164.0124 C.3     1  UNL1        0.0278
     14 C         138.6782  139.2004  162.5893 C.3     1  UNL1        0.0251
     15 C         139.6216  140.3665  162.5930 C.3     1  UNL1        0.0801
     16 C         142.4760  142.9558  171.1970 C.3     1  UNL1        0.0522
     17 C         141.5528  141.9431  170.5870 C.ar    1  UNL1        0.0626
     18 C         141.3892  141.8786  169.0973 C.ar    1  UNL1        0.0339
     19 C         140.4659  140.8659  168.4874 C.ar    1  UNL1        0.0842
     20 N         139.7061  139.9178  169.3671 N.ar    1  UNL1       -0.2240
     21 C         139.8696  139.9824  170.8567 C.ar    1  UNL1        0.1985
     22 N         140.7930  140.9951  171.4667 N.ar    1  UNL1       -0.2283
     23 N         141.6286  143.2946  157.7560 N.am    1  UNL1       -0.2640
     24 C         143.1035  143.4158  157.5108 C.3     1  UNL1        0.1164
     25 C         140.6555  143.9056  156.7917 C.2     1  UNL1        0.3042
     26 O         139.1806  143.7845  157.0368 O.2     1  UNL1       -0.2526
     27 N         141.1571  144.6377  155.5824 N.am    1  UNL1       -0.2866
     28 H         142.1251  144.7172  155.4215 H       1  UNL1        0.1512
     29 C         140.1840  145.2486  154.6182 C.3     1  UNL1        0.0964
     30 C         139.5361  144.3979  153.5663 C.3     1  UNL1        0.0262
     31 C         139.8588  146.7104  154.7059 C.ar    1  UNL1        0.0070
     32 C         138.9167  147.2071  155.7621 C.ar    1  UNL1       -0.0012
     33 C         138.5916  148.6688  155.8498 C.ar    1  UNL1        0.0089
     34 C         139.2086  149.6337  154.8812 C.ar    1  UNL1        0.0530
     35 C         140.1507  149.1370  153.8249 C.ar    1  UNL1        0.0755
     36 CL        140.7676  150.1020  152.8563 Cl      1  UNL1       -0.0807
     37 C         140.4758  147.6753  153.7373 C.ar    1  UNL1        0.0664
     38 CL        141.4179  147.1785  152.6810 Cl      1  UNL1       -0.0816
     39 C         138.8835  151.0955  154.9688 C.1     1  UNL1       -0.0635
     40 C         138.5584  152.5572  155.0565 C.1     1  UNL1       -0.0874
     41 C         138.2332  154.0189  155.1441 C.3     1  UNL1        0.0645
     42 C         138.6011  155.4080  155.5744 C.3     1  UNL1        0.0140
     43 C         137.3023  155.1616  154.8657 C.3     1  UNL1        0.0140
@<TRIPOS>BOND
     1    16    17    1
     2    17    18   ar
     3    18    19   ar
     4    19     7    1
     5     7     8   ar
     6     8     9   ar
     7     9    10   ar
     8    10    11   ar
     9    11    12   ar
    10    11    13    1
    11    13    14    1
    12    14    15    1
    13    15     1    1
    14     1     2    1
    15     2     3    1
    16     3     4    1
    17     4    23    1
    18    23    24    1
    19    23    25   am
    20    25    26    2
    21    25    27   am
    22    27    29    1
    23    29    30    1
    24    29    31    1
    25    31    32   ar
    26    32    33   ar
    27    33    34   ar
    28    34    39    1
    29    39    40    3
    30    40    41    1
    31    41    42    1
    32    42    43    1
    33    34    35   ar
    34    35    36    1
    35    35    37   ar
    36    37    38    1
    37     4     5    1
    38     5     6    1
    39    19    20   ar
    40    20    21   ar
    41    21    22   ar
    42    22    17   ar
    43    12     7   ar
    44     6     1    1
    45    15    10    1
    46    37    31   ar
    47    43    41    1
    48    27    28    1
@<TRIPOS>MOLECULE
*****
 43 48 0 0 0
SMALL
GASTEIGER

@<TRIPOS>ATOM
      1 N         143.0923  142.3450  161.8062 N.3     1  UNL1       -0.2702
      2 C         142.7886  143.4259  160.8115 C.3     1  UNL1        0.0740
      3 C         142.4615  143.0683  159.3920 C.3     1  UNL1        0.0372
      4 C         142.4380  141.6299  158.9672 C.3     1  UNL1        0.0797
      5 C         142.7417  140.5490  159.9620 C.3     1  UNL1        0.0372
      6 C         143.0688  140.9066  161.3815 C.3     1  UNL1        0.0740
      7 C         141.7295  141.5196  167.2005 C.ar    1  UNL1        0.0174
      8 C         141.0776  140.9026  165.9987 C.ar    1  UNL1        0.0012
      9 C         141.5725  141.2367  164.6227 C.ar    1  UNL1       -0.0032
     10 C         142.7194  142.1877  164.4485 C.ar    1  UNL1       -0.0117
     11 C         143.3713  142.8046  165.6503 C.ar    1  UNL1       -0.0248
     12 C         142.8764  142.4706  167.0263 C.ar    1  UNL1       -0.0030
     13 C         144.4742  143.7009  165.1704 C.3     1  UNL1        0.0278
     14 C         144.5040  143.6378  163.6720 C.3     1  UNL1        0.0251
     15 C         143.4194  142.7026  163.2258 C.3     1  UNL1        0.0801
     16 C         137.9279  139.8808  170.3409 C.3     1  UNL1        0.0522
     17 C         139.3338  140.3662  170.1468 C.ar    1  UNL1        0.0626
     18 C         139.8287  140.7002  168.7707 C.ar    1  UNL1        0.0339
     19 C         141.2346  141.1856  168.5766 C.ar    1  UNL1        0.0842
     20 N         142.1457  141.3371  169.7585 N.ar    1  UNL1       -0.2240
     21 C         141.6508  141.0031  171.1346 C.ar    1  UNL1        0.1985
     22 N         140.2449  140.5176  171.3287 N.ar    1  UNL1       -0.2283
     23 N         142.1109  141.2723  157.5476 N.am    1  UNL1       -0.2640
     24 C         140.9209  141.8889  156.8740 C.3     1  UNL1        0.1164
     25 C         142.9738  140.2982  156.8017 C.2     1  UNL1        0.3042
     26 O         144.1638  139.6816  157.4753 O.2     1  UNL1       -0.2526
     27 N         142.6467  139.9405  155.3821 N.am    1  UNL1       -0.2866
     28 H         141.8657  140.3452  154.9399 H       1  UNL1        0.1512
     29 C         143.5096  138.9664  154.6361 C.3     1  UNL1        0.0964
     30 C         144.6466  139.4638  153.7936 C.3     1  UNL1        0.0262
     31 C         143.2354  137.4948  154.7327 C.ar    1  UNL1        0.0070
     32 C         143.9927  136.6539  155.7173 C.ar    1  UNL1       -0.0012
     33 C         143.7184  135.1823  155.8138 C.ar    1  UNL1        0.0089
     34 C         142.6870  134.5517  154.9258 C.ar    1  UNL1        0.0530
     35 C         141.9298  135.3927  153.9413 C.ar    1  UNL1        0.0755
     36 CL        140.8983  134.7621  153.0533 Cl      1  UNL1       -0.0807
     37 C         142.2040  136.8642  153.8447 C.ar    1  UNL1        0.0664
     38 CL        141.4468  137.7052  152.8602 Cl      1  UNL1       -0.0816
     39 C         142.4128  133.0802  155.0224 C.1     1  UNL1       -0.0635
     40 C         142.1386  131.6086  155.1189 C.1     1  UNL1       -0.0874
     41 C         141.8644  130.1370  155.2154 C.3     1  UNL1        0.0645
     42 C         142.2535  128.7722  155.7011 C.3     1  UNL1        0.0140
     43 C         141.0003  128.9530  154.8969 C.3     1  UNL1        0.0140
@<TRIPOS>BOND
     1    16    17    1
     2    17    18   ar
     3    18    19   ar
     4    19     7    1
     5     7     8   ar
     6     8     9   ar
     7     9    10   ar
     8    10    11   ar
     9    11    12   ar
    10    11    13    1
    11    13    14    1
    12    14    15    1
    13    15     1    1
    14     1     2    1
    15     2     3    1
    16     3     4    1
    17     4    23    1
    18    23    24    1
    19    23    25   am
    20    25    26    2
    21    25    27   am
    22    27    29    1
    23    29    30    1
    24    29    31    1
    25    31    32   ar
    26    32    33   ar
    27    33    34   ar
    28    34    39    1
    29    39    40    3
    30    40    41    1
    31    41    42    1
    32    42    43    1
    33    34    35   ar
    34    35    36    1
    35    35    37   ar
    36    37    38    1
    37     4     5    1
    38     5     6    1
    39    19    20   ar
    40    20    21   ar
    41    21    22   ar
    42    22    17   ar
    43    12     7   ar
    44     6     1    1
    45    15    10    1
    46    37    31   ar
    47    43    41    1
    48    27    28    1
@<TRIPOS>MOLECULE
*****
 43 48 0 0 0
SMALL
GASTEIGER

@<TRIPOS>ATOM
      1 N         138.7986  142.4282  161.0258 N.3     1  UNL1       -0.2702
      2 C         139.4314  143.3036  159.9850 C.3     1  UNL1        0.0740
      3 C         139.4972  142.8450  158.5584 C.3     1  UNL1        0.0372
      4 C         138.9303  141.5110  158.1725 C.3     1  UNL1        0.0797
      5 C         138.2975  140.6355  159.2132 C.3     1  UNL1        0.0372
      6 C         138.2317  141.0941  160.6398 C.3     1  UNL1        0.0740
      7 C         140.7736  141.6091  166.2282 C.ar    1  UNL1        0.0174
      8 C         141.1495  140.8522  164.9889 C.ar    1  UNL1        0.0012
      9 C         140.5199  141.2060  163.6742 C.ar    1  UNL1       -0.0032
     10 C         139.5145  142.3166  163.5988 C.ar    1  UNL1       -0.0117
     11 C         139.1385  143.0734  164.8381 C.ar    1  UNL1       -0.0248
     12 C         139.7681  142.7196  166.1528 C.ar    1  UNL1       -0.0030
     13 C         138.1246  144.1113  164.4577 C.3     1  UNL1        0.0278
     14 C         137.8739  143.9959  162.9833 C.3     1  UNL1        0.0251
     15 C         138.7328  142.8867  162.4524 C.3     1  UNL1        0.0801
     16 C         144.2802  142.5674  169.9411 C.3     1  UNL1        0.0522
     17 C         143.1564  141.7345  169.3994 C.ar    1  UNL1        0.0626
     18 C         142.5269  142.0882  168.0846 C.ar    1  UNL1        0.0339
     19 C         141.4031  141.2553  167.5430 C.ar    1  UNL1        0.0842
     20 N         140.9089  140.0687  168.3160 N.ar    1  UNL1       -0.2240
     21 C         141.5384  139.7150  169.6308 C.ar    1  UNL1        0.1985
     22 N         142.6622  140.5479  170.1725 N.ar    1  UNL1       -0.2283
     23 N         138.9961  141.0524  156.7458 N.am    1  UNL1       -0.2640
     24 C         137.8588  141.3420  155.8116 C.3     1  UNL1        0.1164
     25 C         140.1992  140.3042  156.2533 C.2     1  UNL1        0.3042
     26 O         141.3366  140.0145  157.1874 O.2     1  UNL1       -0.2526
     27 N         140.2652  139.8456  154.8266 N.am    1  UNL1       -0.2866
     28 H         139.5187  140.0357  154.2135 H       1  UNL1        0.1512
     29 C         141.4683  139.0973  154.3341 C.3     1  UNL1        0.0964
     30 C         142.5820  139.8343  153.6509 C.3     1  UNL1        0.0262
     31 C         141.5577  137.6122  154.5248 C.ar    1  UNL1        0.0070
     32 C         140.6670  136.6996  153.7350 C.ar    1  UNL1       -0.0012
     33 C         140.7565  135.2145  153.9257 C.ar    1  UNL1        0.0089
     34 C         141.7367  134.6420  154.9062 C.ar    1  UNL1        0.0530
     35 C         142.6274  135.5545  155.6960 C.ar    1  UNL1        0.0755
     36 CL        143.6077  134.9820  156.6765 Cl      1  UNL1       -0.0807
     37 C         142.5380  137.0396  155.5053 C.ar    1  UNL1        0.0664
     38 CL        143.4287  137.9523  156.2950 Cl      1  UNL1       -0.0816
     39 C         141.8262  133.1569  155.0970 C.1     1  UNL1       -0.0635
     40 C         141.9157  131.6717  155.2876 C.1     1  UNL1       -0.0874
     41 C         142.0052  130.1865  155.4784 C.3     1  UNL1        0.0645
     42 C         142.7836  128.9755  155.8997 C.3     1  UNL1        0.0140
     43 C         141.3818  128.8253  155.3874 C.3     1  UNL1        0.0140
@<TRIPOS>BOND
     1    16    17    1
     2    17    18   ar
     3    18    19   ar
     4    19     7    1
     5     7     8   ar
     6     8     9   ar
     7     9    10   ar
     8    10    11   ar
     9    11    12   ar
    10    11    13    1
    11    13    14    1
    12    14    15    1
    13    15     1    1
    14     1     2    1
    15     2     3    1
    16     3     4    1
    17     4    23    1
    18    23    24    1
    19    23    25   am
    20    25    26    2
    21    25    27   am
    22    27    29    1
    23    29    30    1
    24    29    31    1
    25    31    32   ar
    26    32    33   ar
    27    33    34   ar
    28    34    39    1
    29    39    40    3
    30    40    41    1
    31    41    42    1
    32    42    43    1
    33    34    35   ar
    34    35    36    1
    35    35    37   ar
    36    37    38    1
    37     4     5    1
    38     5     6    1
    39    19    20   ar
    40    20    21   ar
    41    21    22   ar
    42    22    17   ar
    43    12     7   ar
    44     6     1    1
    45    15    10    1
    46    37    31   ar
    47    43    41    1
    48    27    28    1
