@<TRIPOS>MOLECULE
*****
 29 32 0 0 0
SMALL
GASTEIGER

@<TRIPOS>ATOM
      1 C         140.9813  138.5400  164.5116 C.ar    1  UNL1        0.1035
      2 C         141.0805  137.0856  164.1580 C.ar    1  UNL1        0.1197
      3 N         141.0284  136.9675  162.6636 N.ar    1  UNL1       -0.2234
      4 C         140.8970  138.3487  162.0936 C.ar    1  UNL1        0.1639
      5 C         140.8001  138.8471  160.6822 C.ar    1  UNL1        0.0404
      6 C         140.6741  140.3173  160.4129 C.ar    1  UNL1        0.0240
      7 C         140.6450  141.2892  161.5551 C.ar    1  UNL1        0.1015
      8 N         140.7419  140.7908  162.9665 N.ar    1  UNL1       -0.1638
      9 N         140.8679  139.3206  163.2358 N.ar    1  UNL1       -0.2107
     10 C         141.0177  140.2594  168.6701 C.ar    1  UNL1        0.1057
     11 C         139.7171  140.0763  167.9455 C.ar    1  UNL1        0.0184
     12 C         139.7050  139.5032  166.5594 C.ar    1  UNL1        0.0029
     13 C         140.9934  139.1131  165.8978 C.ar    1  UNL1        0.0194
     14 C         142.2940  139.2961  166.6224 C.ar    1  UNL1        0.0029
     15 C         142.3061  139.8692  168.0086 C.ar    1  UNL1        0.0184
     16 C         141.0418  141.4055  171.4424 C.3     1  UNL1        0.1816
     17 S         141.0298  140.8325  170.0563 S.O2    1  UNL1        0.0104
     18 O         140.0098  139.8192  170.4840 O.2     1  UNL1       -0.1686
     19 O         142.0497  141.8457  169.6284 O.2     1  UNL1       -0.1686
     20 C         140.5190  142.7595  161.2858 C.ar    1  UNL1        0.0206
     21 C         139.8986  143.6596  162.3128 C.ar    1  UNL1        0.0016
     22 C         139.7726  145.1299  162.0435 C.ar    1  UNL1        0.0014
     23 C         140.2671  145.6999  160.7471 C.ar    1  UNL1        0.0183
     24 C         140.8875  144.7997  159.7201 C.ar    1  UNL1        0.1058
     25 C         141.0135  143.3295  159.9894 C.ar    1  UNL1        0.0199
     26 S         141.3820  145.3698  158.4237 S.O2    1  UNL1        0.0104
     27 C         141.8764  145.9399  157.1274 C.3     1  UNL1        0.1816
     28 O         142.6923  144.6647  158.6135 O.2     1  UNL1       -0.1686
     29 O         140.0717  146.0749  158.2340 O.2     1  UNL1       -0.1686
@<TRIPOS>BOND
     1    16    17    1
     2    17    18    2
     3    17    19    2
     4    17    10    1
     5    10    11   ar
     6    11    12   ar
     7    12    13   ar
     8    13     1    1
     9     1     2   ar
    10     2     3   ar
    11     3     4   ar
    12     4     5   ar
    13     5     6   ar
    14     6     7   ar
    15     7    20    1
    16    20    21   ar
    17    21    22   ar
    18    22    23   ar
    19    23    24   ar
    20    24    26    1
    21    26    27    1
    22    26    28    2
    23    26    29    2
    24    24    25   ar
    25     7     8   ar
    26     8     9   ar
    27    13    14   ar
    28    14    15   ar
    29    15    10   ar
    30     9     1   ar
    31     9     4   ar
    32    25    20   ar
@<TRIPOS>MOLECULE
*****
 29 32 0 0 0
SMALL
GASTEIGER

@<TRIPOS>ATOM
      1 C         140.9790  144.5994  161.1591 C.ar    1  UNL1        0.1035
      2 C         140.0806  145.7569  160.8380 C.ar    1  UNL1        0.1197
      3 N         139.2275  146.0292  162.0413 N.ar    1  UNL1       -0.2234
      4 C         139.5986  145.0400  163.1062 C.ar    1  UNL1        0.1639
      5 C         139.0907  144.8298  164.5018 C.ar    1  UNL1        0.0404
      6 C         139.6654  143.7360  165.3522 C.ar    1  UNL1        0.0240
      7 C         140.7479  142.8523  164.8069 C.ar    1  UNL1        0.1015
      8 N         141.2558  143.0625  163.4113 N.ar    1  UNL1       -0.1638
      9 N         140.6811  144.1564  162.5609 N.ar    1  UNL1       -0.2107
     10 C         144.0318  142.7761  158.4012 C.ar    1  UNL1        0.1057
     11 C         144.1494  142.5815  159.8839 C.ar    1  UNL1        0.0184
     12 C         143.1318  143.1893  160.8031 C.ar    1  UNL1        0.0029
     13 C         141.9966  143.9916  160.2399 C.ar    1  UNL1        0.0194
     14 C         141.8790  144.1863  158.7571 C.ar    1  UNL1        0.0029
     15 C         142.8966  143.5785  157.8378 C.ar    1  UNL1        0.0184
     16 C         146.0669  141.5605  156.5626 C.3     1  UNL1        0.1816
     17 S         145.0495  142.1684  157.4819 S.O2    1  UNL1        0.0104
     18 O         143.9553  141.4614  156.7382 O.2     1  UNL1       -0.1686
     19 O         146.1436  142.8753  158.2257 O.2     1  UNL1       -0.1686
     20 C         141.3225  141.7584  165.6574 C.ar    1  UNL1        0.0206
     21 C         142.4328  140.9006  165.1268 C.ar    1  UNL1        0.0016
     22 C         143.0074  139.8067  165.9772 C.ar    1  UNL1        0.0014
     23 C         142.4717  139.5706  167.3583 C.ar    1  UNL1        0.0183
     24 C         141.3614  140.4284  167.8889 C.ar    1  UNL1        0.1058
     25 C         140.7868  141.5222  167.0384 C.ar    1  UNL1        0.0199
     26 S         140.8257  140.1923  169.2699 S.O2    1  UNL1        0.0104
     27 C         140.2900  139.9561  170.6510 C.3     1  UNL1        0.1816
     28 O         142.1367  140.6296  169.8532 O.2     1  UNL1       -0.1686
     29 O         139.5148  139.7550  168.6867 O.2     1  UNL1       -0.1686
@<TRIPOS>BOND
     1    16    17    1
     2    17    18    2
     3    17    19    2
     4    17    10    1
     5    10    11   ar
     6    11    12   ar
     7    12    13   ar
     8    13     1    1
     9     1     2   ar
    10     2     3   ar
    11     3     4   ar
    12     4     5   ar
    13     5     6   ar
    14     6     7   ar
    15     7    20    1
    16    20    21   ar
    17    21    22   ar
    18    22    23   ar
    19    23    24   ar
    20    24    26    1
    21    26    27    1
    22    26    28    2
    23    26    29    2
    24    24    25   ar
    25     7     8   ar
    26     8     9   ar
    27    13    14   ar
    28    14    15   ar
    29    15    10   ar
    30     9     1   ar
    31     9     4   ar
    32    25    20   ar
@<TRIPOS>MOLECULE
*****
 29 32 0 0 0
SMALL
GASTEIGER

@<TRIPOS>ATOM
      1 C         140.8933  143.4004  160.8253 C.ar    1  UNL1        0.1035
      2 C         140.9593  144.8329  160.3855 C.ar    1  UNL1        0.1197
      3 N         140.4501  145.6866  161.5089 N.ar    1  UNL1       -0.2234
      4 C         140.0694  144.7817  162.6430 C.ar    1  UNL1        0.1639
      5 C         139.5087  145.0617  164.0057 C.ar    1  UNL1        0.0404
      6 C         139.2220  143.9288  164.9460 C.ar    1  UNL1        0.0240
      7 C         139.4959  142.5158  164.5236 C.ar    1  UNL1        0.1015
      8 N         140.0566  142.2358  163.1608 N.ar    1  UNL1       -0.1638
      9 N         140.3433  143.3687  162.2205 N.ar    1  UNL1       -0.2107
     10 C         142.1285  139.8253  158.3873 C.ar    1  UNL1        0.1057
     11 C         140.7211  140.3379  158.3071 C.ar    1  UNL1        0.0184
     12 C         140.3094  141.5296  159.1197 C.ar    1  UNL1        0.0029
     13 C         141.3050  142.2087  160.0127 C.ar    1  UNL1        0.0194
     14 C         142.7125  141.6961  160.0929 C.ar    1  UNL1        0.0029
     15 C         143.1242  140.5045  159.2803 C.ar    1  UNL1        0.0184
     16 C         142.9517  137.4420  156.7620 C.3     1  UNL1        0.1816
     17 S         142.5402  138.6337  157.5747 S.O2    1  UNL1        0.0104
     18 O         141.1980  138.0076  157.8130 O.2     1  UNL1       -0.1686
     19 O         143.8822  139.2598  157.3364 O.2     1  UNL1       -0.1686
     20 C         139.2091  141.3829  165.4639 C.ar    1  UNL1        0.0206
     21 C         138.2756  140.2837  165.0513 C.ar    1  UNL1        0.0016
     22 C         137.9888  139.1507  165.9917 C.ar    1  UNL1        0.0014
     23 C         138.6355  139.1171  167.3447 C.ar    1  UNL1        0.0183
     24 C         139.5690  140.2164  167.7573 C.ar    1  UNL1        0.1058
     25 C         139.8558  141.3492  166.8170 C.ar    1  UNL1        0.0199
     26 S         140.2157  140.1827  169.1103 S.O2    1  UNL1        0.0104
     27 C         140.8624  140.1491  170.4634 C.3     1  UNL1        0.1816
     28 O         141.5355  140.5308  168.4882 O.2     1  UNL1       -0.1686
     29 O         138.8960  139.8347  169.7325 O.2     1  UNL1       -0.1686
@<TRIPOS>BOND
     1    16    17    1
     2    17    18    2
     3    17    19    2
     4    17    10    1
     5    10    11   ar
     6    11    12   ar
     7    12    13   ar
     8    13     1    1
     9     1     2   ar
    10     2     3   ar
    11     3     4   ar
    12     4     5   ar
    13     5     6   ar
    14     6     7   ar
    15     7    20    1
    16    20    21   ar
    17    21    22   ar
    18    22    23   ar
    19    23    24   ar
    20    24    26    1
    21    26    27    1
    22    26    28    2
    23    26    29    2
    24    24    25   ar
    25     7     8   ar
    26     8     9   ar
    27    13    14   ar
    28    14    15   ar
    29    15    10   ar
    30     9     1   ar
    31     9     4   ar
    32    25    20   ar
@<TRIPOS>MOLECULE
*****
 29 32 0 0 0
SMALL
GASTEIGER

@<TRIPOS>ATOM
      1 C         142.6753  138.7779  158.7092 C.ar    1  UNL1        0.1035
      2 C         143.2449  140.0965  158.2769 C.ar    1  UNL1        0.1197
      3 N         143.9167  139.8987  156.9505 N.ar    1  UNL1       -0.2234
      4 C         143.7624  138.4579  156.5630 C.ar    1  UNL1        0.1639
      5 C         144.2213  137.6872  155.3608 C.ar    1  UNL1        0.0404
      6 C         143.9130  136.2237  155.2456 C.ar    1  UNL1        0.0240
      7 C         143.1458  135.5310  156.3325 C.ar    1  UNL1        0.1015
      8 N         142.6868  136.3018  157.5347 N.ar    1  UNL1       -0.1638
      9 N         142.9951  137.7652  157.6499 N.ar    1  UNL1       -0.2107
     10 C         140.4057  137.9972  162.5158 C.ar    1  UNL1        0.1057
     11 C         139.6723  138.4277  161.2801 C.ar    1  UNL1        0.0184
     12 C         140.4289  138.6879  160.0113 C.ar    1  UNL1        0.0029
     13 C         141.9188  138.5177  159.9780 C.ar    1  UNL1        0.0194
     14 C         142.6522  138.0872  161.2138 C.ar    1  UNL1        0.0029
     15 C         141.8956  137.8270  162.4826 C.ar    1  UNL1        0.0184
     16 C         138.8925  137.4769  165.0533 C.3     1  UNL1        0.1816
     17 S         139.6491  137.7370  163.7846 S.O2    1  UNL1        0.0104
     18 O         138.4327  138.3843  163.1919 O.2     1  UNL1       -0.1686
     19 O         140.8656  137.0898  164.3772 O.2     1  UNL1       -0.1686
     20 C         142.8375  134.0675  156.2173 C.ar    1  UNL1        0.0206
     21 C         141.7416  133.6015  155.3053 C.ar    1  UNL1        0.0016
     22 C         141.4334  132.1380  155.1900 C.ar    1  UNL1        0.0014
     23 C         142.2210  131.1406  155.9868 C.ar    1  UNL1        0.0183
     24 C         143.3170  131.6067  156.8988 C.ar    1  UNL1        0.1058
     25 C         143.6252  133.0702  157.0140 C.ar    1  UNL1        0.0199
     26 S         144.1047  130.6094  157.6956 S.O2    1  UNL1        0.0104
     27 C         144.8923  129.6120  158.4923 C.3     1  UNL1        0.1816
     28 O         143.1399  129.5312  157.2997 O.2     1  UNL1       -0.1686
     29 O         145.0694  131.6876  158.0915 O.2     1  UNL1       -0.1686
@<TRIPOS>BOND
     1    16    17    1
     2    17    18    2
     3    17    19    2
     4    17    10    1
     5    10    11   ar
     6    11    12   ar
     7    12    13   ar
     8    13     1    1
     9     1     2   ar
    10     2     3   ar
    11     3     4   ar
    12     4     5   ar
    13     5     6   ar
    14     6     7   ar
    15     7    20    1
    16    20    21   ar
    17    21    22   ar
    18    22    23   ar
    19    23    24   ar
    20    24    26    1
    21    26    27    1
    22    26    28    2
    23    26    29    2
    24    24    25   ar
    25     7     8   ar
    26     8     9   ar
    27    13    14   ar
    28    14    15   ar
    29    15    10   ar
    30     9     1   ar
    31     9     4   ar
    32    25    20   ar
@<TRIPOS>MOLECULE
*****
 29 32 0 0 0
SMALL
GASTEIGER

@<TRIPOS>ATOM
      1 C         139.9474  143.5175  160.5239 C.ar    1  UNL1        0.1035
      2 C         140.2137  144.9441  160.1447 C.ar    1  UNL1        0.1197
      3 N         140.2397  145.7609  161.4026 N.ar    1  UNL1       -0.2234
      4 C         139.9895  144.8390  162.5592 C.ar    1  UNL1        0.1639
      5 C         139.9029  145.0831  164.0366 C.ar    1  UNL1        0.0404
      6 C         139.6356  143.9405  164.9710 C.ar    1  UNL1        0.0240
      7 C         139.4549  142.5540  164.4280 C.ar    1  UNL1        0.1015
      8 N         139.5415  142.3100  162.9505 N.ar    1  UNL1       -0.1638
      9 N         139.8088  143.4525  162.0161 N.ar    1  UNL1       -0.2107
     10 C         139.6212  140.0423  157.6836 C.ar    1  UNL1        0.1057
     11 C         140.9593  140.4386  158.2333 C.ar    1  UNL1        0.0184
     12 C         141.0680  141.5970  159.1801 C.ar    1  UNL1        0.0029
     13 C         139.8387  142.3591  159.5772 C.ar    1  UNL1        0.0194
     14 C         138.5004  141.9627  159.0275 C.ar    1  UNL1        0.0029
     15 C         138.3917  140.8043  158.0807 C.ar    1  UNL1        0.0184
     16 C         139.4038  137.7255  155.7902 C.3     1  UNL1        0.1816
     17 S         139.5125  138.8839  156.7369 S.O2    1  UNL1        0.0104
     18 O         139.5022  137.9353  157.8988 O.2     1  UNL1       -0.1686
     19 O         139.5227  139.8326  155.5750 O.2     1  UNL1       -0.1686
     20 C         139.1876  141.4115  165.3625 C.ar    1  UNL1        0.0206
     21 C         138.2582  140.3081  164.9515 C.ar    1  UNL1        0.0016
     22 C         137.9909  139.1656  165.8860 C.ar    1  UNL1        0.0014
     23 C         138.6529  139.1265  167.2314 C.ar    1  UNL1        0.0183
     24 C         139.5823  140.2299  167.6424 C.ar    1  UNL1        0.1058
     25 C         139.8496  141.3724  166.7079 C.ar    1  UNL1        0.0199
     26 S         140.2443  140.1908  168.9878 S.O2    1  UNL1        0.0104
     27 C         140.9064  140.1517  170.3332 C.3     1  UNL1        0.1816
     28 O         141.5524  140.5629  168.3550 O.2     1  UNL1       -0.1686
     29 O         138.9363  139.8187  169.6206 O.2     1  UNL1       -0.1686
@<TRIPOS>BOND
     1    16    17    1
     2    17    18    2
     3    17    19    2
     4    17    10    1
     5    10    11   ar
     6    11    12   ar
     7    12    13   ar
     8    13     1    1
     9     1     2   ar
    10     2     3   ar
    11     3     4   ar
    12     4     5   ar
    13     5     6   ar
    14     6     7   ar
    15     7    20    1
    16    20    21   ar
    17    21    22   ar
    18    22    23   ar
    19    23    24   ar
    20    24    26    1
    21    26    27    1
    22    26    28    2
    23    26    29    2
    24    24    25   ar
    25     7     8   ar
    26     8     9   ar
    27    13    14   ar
    28    14    15   ar
    29    15    10   ar
    30     9     1   ar
    31     9     4   ar
    32    25    20   ar
@<TRIPOS>MOLECULE
*****
 29 32 0 0 0
SMALL
GASTEIGER

@<TRIPOS>ATOM
      1 C         140.2991  143.1842  160.4235 C.ar    1  UNL1        0.1035
      2 C         140.0967  144.4941  159.7215 C.ar    1  UNL1        0.1197
      3 N         139.6785  145.5084  160.7444 N.ar    1  UNL1       -0.2234
      4 C         139.6225  144.8253  162.0786 C.ar    1  UNL1        0.1639
      5 C         139.2718  145.3257  163.4485 C.ar    1  UNL1        0.0404
      6 C         139.3046  144.3896  164.6200 C.ar    1  UNL1        0.0240
      7 C         139.6882  142.9531  164.4217 C.ar    1  UNL1        0.1015
      8 N         140.0389  142.4527  163.0519 N.ar    1  UNL1       -0.1638
      9 N         140.0061  143.3888  161.8803 N.ar    1  UNL1       -0.2107
     10 C         141.5636  139.3187  158.4975 C.ar    1  UNL1        0.1057
     11 C         142.4569  140.5213  158.4227 C.ar    1  UNL1        0.0184
     12 C         142.0354  141.8098  159.0647 C.ar    1  UNL1        0.0029
     13 C         140.7206  141.8957  159.7815 C.ar    1  UNL1        0.0194
     14 C         139.8273  140.6929  159.8564 C.ar    1  UNL1        0.0029
     15 C         140.2488  139.4045  159.2144 C.ar    1  UNL1        0.0184
     16 C         142.4068  136.7418  157.2136 C.3     1  UNL1        0.1816
     17 S         141.9851  138.0302  157.8555 S.O2    1  UNL1        0.0104
     18 O         143.3418  138.1620  158.4819 O.2     1  UNL1       -0.1686
     19 O         140.6285  137.8984  157.2293 O.2     1  UNL1       -0.1686
     20 C         139.7211  142.0170  165.5934 C.ar    1  UNL1        0.0206
     21 C         140.4899  142.3864  166.8272 C.ar    1  UNL1        0.0016
     22 C         140.5228  141.4503  167.9989 C.ar    1  UNL1        0.0014
     23 C         139.7868  140.1447  167.9366 C.ar    1  UNL1        0.0183
     24 C         139.0179  139.7753  166.7027 C.ar    1  UNL1        0.1058
     25 C         138.9851  140.7114  165.5311 C.ar    1  UNL1        0.0199
     26 S         138.2819  138.4698  166.6404 S.O2    1  UNL1        0.0104
     27 C         137.5458  137.1643  166.5782 C.3     1  UNL1        0.1816
     28 O         138.8700  138.2028  165.2866 O.2     1  UNL1       -0.1686
     29 O         137.6938  138.7368  167.9943 O.2     1  UNL1       -0.1686
@<TRIPOS>BOND
     1    16    17    1
     2    17    18    2
     3    17    19    2
     4    17    10    1
     5    10    11   ar
     6    11    12   ar
     7    12    13   ar
     8    13     1    1
     9     1     2   ar
    10     2     3   ar
    11     3     4   ar
    12     4     5   ar
    13     5     6   ar
    14     6     7   ar
    15     7    20    1
    16    20    21   ar
    17    21    22   ar
    18    22    23   ar
    19    23    24   ar
    20    24    26    1
    21    26    27    1
    22    26    28    2
    23    26    29    2
    24    24    25   ar
    25     7     8   ar
    26     8     9   ar
    27    13    14   ar
    28    14    15   ar
    29    15    10   ar
    30     9     1   ar
    31     9     4   ar
    32    25    20   ar
@<TRIPOS>MOLECULE
*****
 29 32 0 0 0
SMALL
GASTEIGER

@<TRIPOS>ATOM
      1 C         138.9162  142.7386  164.1226 C.ar    1  UNL1        0.1035
      2 C         137.9771  143.8936  163.9378 C.ar    1  UNL1        0.1197
      3 N         137.7504  144.0757  162.4663 N.ar    1  UNL1       -0.2234
      4 C         138.5493  143.0333  161.7416 C.ar    1  UNL1        0.1639
      5 C         138.7138  142.7298  160.2819 C.ar    1  UNL1        0.0404
      6 C         139.5989  141.6000  159.8459 C.ar    1  UNL1        0.0240
      7 C         140.3194  140.7736  160.8696 C.ar    1  UNL1        0.1015
      8 N         140.1549  141.0771  162.3293 N.ar    1  UNL1       -0.1638
      9 N         139.2698  142.2069  162.7653 N.ar    1  UNL1       -0.2107
     10 C         140.4102  141.1478  168.0581 C.ar    1  UNL1        0.1057
     11 C         140.7224  142.5575  167.6517 C.ar    1  UNL1        0.0184
     12 C         140.2244  143.0877  166.3399 C.ar    1  UNL1        0.0029
     13 C         139.4142  142.2083  165.4344 C.ar    1  UNL1        0.0194
     14 C         139.1019  140.7985  165.8408 C.ar    1  UNL1        0.0029
     15 C         139.5999  140.2683  167.1526 C.ar    1  UNL1        0.0184
     16 C         141.4061  140.0872  170.6816 C.3     1  UNL1        0.1816
     17 S         140.9082  140.6175  169.3699 S.O2    1  UNL1        0.0104
     18 O         139.6276  139.8570  169.5485 O.2     1  UNL1       -0.1686
     19 O         142.1887  141.3780  169.1912 O.2     1  UNL1       -0.1686
     20 C         141.2044  139.6437  160.4335 C.ar    1  UNL1        0.0206
     21 C         141.9025  138.7994  161.4581 C.ar    1  UNL1        0.0016
     22 C         142.7875  137.6695  161.0220 C.ar    1  UNL1        0.0014
     23 C         142.9745  137.3840  159.5613 C.ar    1  UNL1        0.0183
     24 C         142.2764  138.2284  158.5367 C.ar    1  UNL1        0.1058
     25 C         141.3914  139.3583  158.9728 C.ar    1  UNL1        0.0199
     26 S         142.4633  137.9430  157.0761 S.O2    1  UNL1        0.0104
     27 C         142.6503  137.6575  155.6154 C.3     1  UNL1        0.1816
     28 O         143.7256  138.7533  157.0792 O.2     1  UNL1       -0.1686
     29 O         141.2010  137.1327  157.0729 O.2     1  UNL1       -0.1686
@<TRIPOS>BOND
     1    16    17    1
     2    17    18    2
     3    17    19    2
     4    17    10    1
     5    10    11   ar
     6    11    12   ar
     7    12    13   ar
     8    13     1    1
     9     1     2   ar
    10     2     3   ar
    11     3     4   ar
    12     4     5   ar
    13     5     6   ar
    14     6     7   ar
    15     7    20    1
    16    20    21   ar
    17    21    22   ar
    18    22    23   ar
    19    23    24   ar
    20    24    26    1
    21    26    27    1
    22    26    28    2
    23    26    29    2
    24    24    25   ar
    25     7     8   ar
    26     8     9   ar
    27    13    14   ar
    28    14    15   ar
    29    15    10   ar
    30     9     1   ar
    31     9     4   ar
    32    25    20   ar
@<TRIPOS>MOLECULE
*****
 29 32 0 0 0
SMALL
GASTEIGER

@<TRIPOS>ATOM
      1 C         143.2704  141.6403  160.9831 C.ar    1  UNL1        0.1035
      2 C         144.3876  142.5961  160.6861 C.ar    1  UNL1        0.1197
      3 N         144.7140  143.3347  161.9502 N.ar    1  UNL1       -0.2234
      4 C         143.7985  142.8354  163.0284 C.ar    1  UNL1        0.1639
      5 C         143.6621  143.1990  164.4772 C.ar    1  UNL1        0.0404
      6 C         142.6334  142.5153  165.3283 C.ar    1  UNL1        0.0240
      7 C         141.7412  141.4681  164.7306 C.ar    1  UNL1        0.1015
      8 N         141.8777  141.1045  163.2818 N.ar    1  UNL1       -0.1638
      9 N         142.9063  141.7881  162.4307 N.ar    1  UNL1       -0.2107
     10 C         141.3484  138.8235  158.0467 C.ar    1  UNL1        0.1057
     11 C         142.6060  138.4215  158.7586 C.ar    1  UNL1        0.0184
     12 C         143.2466  139.3604  159.7374 C.ar    1  UNL1        0.0029
     13 C         142.6298  140.7013  160.0043 C.ar    1  UNL1        0.0194
     14 C         141.3721  141.1034  159.2924 C.ar    1  UNL1        0.0029
     15 C         140.7314  140.1645  158.3136 C.ar    1  UNL1        0.0184
     16 C         140.0670  136.9457  156.0893 C.3     1  UNL1        0.1816
     17 S         140.7077  137.8846  157.0680 S.O2    1  UNL1        0.0104
     18 O         139.3515  138.3374  157.5215 O.2     1  UNL1       -0.1686
     19 O         142.0640  137.4318  156.6145 O.2     1  UNL1       -0.1686
     20 C         140.7125  140.7844  165.5818 C.ar    1  UNL1        0.0206
     21 C         139.5446  140.0965  164.9395 C.ar    1  UNL1        0.0016
     22 C         138.5159  139.4129  165.7907 C.ar    1  UNL1        0.0014
     23 C         138.6552  139.4171  167.2843 C.ar    1  UNL1        0.0183
     24 C         139.8233  140.1050  167.9266 C.ar    1  UNL1        0.1058
     25 C         140.8519  140.7887  167.0754 C.ar    1  UNL1        0.0199
     26 S         139.9627  140.1093  169.4201 S.O2    1  UNL1        0.0104
     27 C         140.1021  140.1136  170.9136 C.3     1  UNL1        0.1816
     28 O         141.4092  140.4824  169.2840 O.2     1  UNL1       -0.1686
     29 O         138.5162  139.7362  169.5561 O.2     1  UNL1       -0.1686
@<TRIPOS>BOND
     1    16    17    1
     2    17    18    2
     3    17    19    2
     4    17    10    1
     5    10    11   ar
     6    11    12   ar
     7    12    13   ar
     8    13     1    1
     9     1     2   ar
    10     2     3   ar
    11     3     4   ar
    12     4     5   ar
    13     5     6   ar
    14     6     7   ar
    15     7    20    1
    16    20    21   ar
    17    21    22   ar
    18    22    23   ar
    19    23    24   ar
    20    24    26    1
    21    26    27    1
    22    26    28    2
    23    26    29    2
    24    24    25   ar
    25     7     8   ar
    26     8     9   ar
    27    13    14   ar
    28    14    15   ar
    29    15    10   ar
    30     9     1   ar
    31     9     4   ar
    32    25    20   ar
@<TRIPOS>MOLECULE
*****
 29 32 0 0 0
SMALL
GASTEIGER

@<TRIPOS>ATOM
      1 C         142.0500  142.4296  160.1219 C.ar    1  UNL1        0.1035
      2 C         141.9242  143.8149  159.5607 C.ar    1  UNL1        0.1197
      3 N         142.0292  144.7871  160.6981 N.ar    1  UNL1       -0.2234
      4 C         142.2199  144.0026  161.9623 C.ar    1  UNL1        0.1639
      5 C         142.3834  144.4268  163.3918 C.ar    1  UNL1        0.0404
      6 C         142.5599  143.3939  164.4650 C.ar    1  UNL1        0.0240
      7 C         142.5727  141.9369  164.1089 C.ar    1  UNL1        0.1015
      8 N         142.4091  141.5127  162.6795 N.ar    1  UNL1       -0.1638
      9 N         142.2327  142.5456  161.6062 N.ar    1  UNL1       -0.2107
     10 C         141.9047  138.5981  157.7663 C.ar    1  UNL1        0.1057
     11 C         140.6907  139.0661  158.5127 C.ar    1  UNL1        0.0184
     12 C         140.7392  140.3432  159.2979 C.ar    1  UNL1        0.0029
     13 C         142.0015  141.1524  159.3367 C.ar    1  UNL1        0.0194
     14 C         143.2156  140.6844  158.5902 C.ar    1  UNL1        0.0029
     15 C         143.1672  139.4072  157.8050 C.ar    1  UNL1        0.0184
     16 C         141.8077  136.0438  156.1959 C.3     1  UNL1        0.1816
     17 S         141.8563  137.3209  156.9811 S.O2    1  UNL1        0.0104
     18 O         140.3570  137.3600  157.0102 O.2     1  UNL1       -0.1686
     19 O         143.3555  137.2819  156.9521 O.2     1  UNL1       -0.1686
     20 C         142.7492  140.9040  165.1823 C.ar    1  UNL1        0.0206
     21 C         143.1825  139.5140  164.8216 C.ar    1  UNL1        0.0016
     22 C         143.3590  138.4811  165.8950 C.ar    1  UNL1        0.0014
     23 C         143.1021  138.8383  167.3290 C.ar    1  UNL1        0.0183
     24 C         142.6687  140.2284  167.6897 C.ar    1  UNL1        0.1058
     25 C         142.4923  141.2612  166.6163 C.ar    1  UNL1        0.0199
     26 S         142.4118  140.5855  169.1237 S.O2    1  UNL1        0.0104
     27 C         142.1549  140.9427  170.5577 C.3     1  UNL1        0.1816
     28 O         141.8095  141.8894  168.6911 O.2     1  UNL1       -0.1686
     29 O         143.0141  139.2817  169.5564 O.2     1  UNL1       -0.1686
@<TRIPOS>BOND
     1    16    17    1
     2    17    18    2
     3    17    19    2
     4    17    10    1
     5    10    11   ar
     6    11    12   ar
     7    12    13   ar
     8    13     1    1
     9     1     2   ar
    10     2     3   ar
    11     3     4   ar
    12     4     5   ar
    13     5     6   ar
    14     6     7   ar
    15     7    20    1
    16    20    21   ar
    17    21    22   ar
    18    22    23   ar
    19    23    24   ar
    20    24    26    1
    21    26    27    1
    22    26    28    2
    23    26    29    2
    24    24    25   ar
    25     7     8   ar
    26     8     9   ar
    27    13    14   ar
    28    14    15   ar
    29    15    10   ar
    30     9     1   ar
    31     9     4   ar
    32    25    20   ar
