@<TRIPOS>MOLECULE
*****
 29 33 0 0 0
SMALL
GASTEIGER

@<TRIPOS>ATOM
      1 C         138.9412  140.5083  164.8381 C.ar    1  UNL1        0.0681
      2 C         137.7724  141.2655  164.2808 C.ar    1  UNL1        0.0208
      3 C         137.4766  141.2130  162.8112 C.ar    1  UNL1        0.0384
      4 C         138.3496  140.4034  161.8990 C.ar    1  UNL1        0.1385
      5 C         139.5184  139.6462  162.4562 C.ar    1  UNL1        0.0384
      6 C         139.8142  139.6987  163.9258 C.ar    1  UNL1        0.0208
      7 C         137.8187  138.4144  166.6698 C.3     1  UNL1        0.0723
      8 C         138.6758  139.5139  167.2236 C.ar    1  UNL1        0.1285
      9 N         138.9715  139.5663  168.6932 N.ar    1  UNL1       -0.2131
     10 C         139.8286  140.6658  169.2470 C.ar    1  UNL1        0.1681
     11 N         140.1244  140.7183  170.7166 N.ar    1  UNL1       -0.2249
     12 C         140.9814  141.8177  171.2703 C.ar    1  UNL1        0.1006
     13 C         141.5427  142.8647  170.3545 C.ar    1  UNL1        0.0209
     14 C         141.2469  142.8122  168.8849 C.ar    1  UNL1        0.0094
     15 C         140.3899  141.7128  168.3312 C.ar    1  UNL1        0.0923
     16 C         140.0941  141.6603  166.8615 C.ar    1  UNL1        0.2685
     17 O         140.6554  142.7073  165.9456 O.2     1  UNL1       -0.2665
     18 N         139.2370  140.5608  166.3078 N.ar    1  UNL1       -0.2625
     19 O         138.0538  140.3509  160.4293 O.3     1  UNL1       -0.4791
     20 C         138.5015  141.4679  159.5338 C.3     1  UNL1        0.1687
     21 C         139.3466  142.5781  160.0848 C.3     1  UNL1        0.0609
     22 C         139.7943  143.6951  159.1893 C.3     1  UNL1        0.0758
     23 N         139.3969  143.7019  157.7428 N.3     1  UNL1       -0.2737
     24 C         138.5518  142.5918  157.1920 C.3     1  UNL1        0.0758
     25 C         138.1041  141.4748  158.0874 C.3     1  UNL1        0.0609
     26 C         139.8445  144.8189  156.8473 C.3     1  UNL1        0.0575
     27 C         140.2170  144.9327  155.3987 C.3     1  UNL1        0.0160
     28 C         140.4777  146.3986  155.5809 C.3     1  UNL1        0.0028
     29 C         140.1053  146.2848  157.0294 C.3     1  UNL1        0.0160
@<TRIPOS>BOND
     1     7     8    1
     2     8     9   ar
     3     9    10   ar
     4    10    11   ar
     5    11    12   ar
     6    12    13   ar
     7    13    14   ar
     8    14    15   ar
     9    15    16   ar
    10    16    17    2
    11    16    18   ar
    12    18     1    1
    13     1     2   ar
    14     2     3   ar
    15     3     4   ar
    16     4    19    1
    17    19    20    1
    18    20    21    1
    19    21    22    1
    20    22    23    1
    21    23    26    1
    22    26    27    1
    23    27    28    1
    24    28    29    1
    25    23    24    1
    26    24    25    1
    27     4     5   ar
    28     5     6   ar
    29    18     8   ar
    30     6     1   ar
    31    15    10   ar
    32    25    20    1
    33    29    26    1
@<TRIPOS>MOLECULE
*****
 29 33 0 0 0
SMALL
GASTEIGER

@<TRIPOS>ATOM
      1 C         140.3586  139.1312  165.0434 C.ar    1  UNL1        0.0681
      2 C         140.9962  137.8077  164.7402 C.ar    1  UNL1        0.0208
      3 C         141.1268  137.3461  163.3190 C.ar    1  UNL1        0.0384
      4 C         140.6199  138.2080  162.2010 C.ar    1  UNL1        0.1385
      5 C         139.9823  139.5315  162.5041 C.ar    1  UNL1        0.0384
      6 C         139.8517  139.9931  163.9253 C.ar    1  UNL1        0.0208
      7 C         137.8781  138.4935  166.6055 C.3     1  UNL1        0.0723
      8 C         138.9877  139.2739  167.2457 C.ar    1  UNL1        0.1285
      9 N         138.8570  139.7354  168.6669 N.ar    1  UNL1       -0.2131
     10 C         139.9666  140.5158  169.3071 C.ar    1  UNL1        0.1681
     11 N         139.8359  140.9773  170.7283 N.ar    1  UNL1       -0.2249
     12 C         140.9455  141.7577  171.3685 C.ar    1  UNL1        0.1006
     13 C         142.1858  142.0765  170.5874 C.ar    1  UNL1        0.0209
     14 C         142.3165  141.6150  169.1662 C.ar    1  UNL1        0.0094
     15 C         141.2069  140.8346  168.5261 C.ar    1  UNL1        0.0923
     16 C         141.3375  140.3731  167.1048 C.ar    1  UNL1        0.2685
     17 O         142.5778  140.6919  166.3237 O.2     1  UNL1       -0.2665
     18 N         140.2279  139.5927  166.4646 N.ar    1  UNL1       -0.2625
     19 O         140.7505  137.7465  160.7797 O.3     1  UNL1       -0.4791
     20 C         141.7207  138.4235  159.8575 C.3     1  UNL1        0.1687
     21 C         142.9235  139.1237  160.4170 C.3     1  UNL1        0.0609
     22 C         143.8937  139.8007  159.4948 C.3     1  UNL1        0.0758
     23 N         143.6610  139.7774  158.0130 N.3     1  UNL1       -0.2737
     24 C         142.4582  139.0773  157.4536 C.3     1  UNL1        0.0758
     25 C         141.4880  138.4003  158.3758 C.3     1  UNL1        0.0609
     26 C         144.6311  140.4544  157.0908 C.3     1  UNL1        0.0575
     27 C         145.2991  140.0874  155.7988 C.3     1  UNL1        0.0160
     28 C         146.0031  141.4118  155.7866 C.3     1  UNL1        0.0028
     29 C         145.3352  141.7789  157.0785 C.3     1  UNL1        0.0160
@<TRIPOS>BOND
     1     7     8    1
     2     8     9   ar
     3     9    10   ar
     4    10    11   ar
     5    11    12   ar
     6    12    13   ar
     7    13    14   ar
     8    14    15   ar
     9    15    16   ar
    10    16    17    2
    11    16    18   ar
    12    18     1    1
    13     1     2   ar
    14     2     3   ar
    15     3     4   ar
    16     4    19    1
    17    19    20    1
    18    20    21    1
    19    21    22    1
    20    22    23    1
    21    23    26    1
    22    26    27    1
    23    27    28    1
    24    28    29    1
    25    23    24    1
    26    24    25    1
    27     4     5   ar
    28     5     6   ar
    29    18     8   ar
    30     6     1   ar
    31    15    10   ar
    32    25    20    1
    33    29    26    1
@<TRIPOS>MOLECULE
*****
 29 33 0 0 0
SMALL
GASTEIGER

@<TRIPOS>ATOM
      1 C         141.3247  139.0749  164.9921 C.ar    1  UNL1        0.0681
      2 C         141.9794  139.7876  163.8461 C.ar    1  UNL1        0.0208
      3 C         141.7309  139.3315  162.4389 C.ar    1  UNL1        0.0384
      4 C         140.8278  138.1627  162.1778 C.ar    1  UNL1        0.1385
      5 C         140.1731  137.4500  163.3239 C.ar    1  UNL1        0.0384
      6 C         140.4216  137.9061  164.7310 C.ar    1  UNL1        0.0208
      7 C         143.7276  138.0817  166.4887 C.3     1  UNL1        0.0723
      8 C         142.7747  139.0345  167.1476 C.ar    1  UNL1        0.1285
      9 N         143.0232  139.4907  168.5548 N.ar    1  UNL1       -0.2131
     10 C         142.0702  140.4435  169.2137 C.ar    1  UNL1        0.1681
     11 N         142.3188  140.8996  170.6209 N.ar    1  UNL1       -0.2249
     12 C         141.3659  141.8523  171.2798 C.ar    1  UNL1        0.1006
     13 C         140.1644  142.3489  170.5315 C.ar    1  UNL1        0.0209
     14 C         139.9159  141.8928  169.1244 C.ar    1  UNL1        0.0094
     15 C         140.8688  140.9401  168.4655 C.ar    1  UNL1        0.0923
     16 C         140.6203  140.4839  167.0582 C.ar    1  UNL1        0.2685
     17 O         139.4189  140.9805  166.3100 O.2     1  UNL1       -0.2665
     18 N         141.5732  139.5311  166.3994 N.ar    1  UNL1       -0.2625
     19 O         140.5793  137.7065  160.7706 O.3     1  UNL1       -0.4791
     20 C         139.7610  138.5531  159.8412 C.3     1  UNL1        0.1687
     21 C         138.6308  139.3799  160.3790 C.3     1  UNL1        0.0609
     22 C         137.8125  140.2264  159.4496 C.3     1  UNL1        0.0758
     23 N         138.1244  140.2462  157.9824 N.3     1  UNL1       -0.2737
     24 C         139.2546  139.4194  157.4448 C.3     1  UNL1        0.0758
     25 C         140.0729  138.5728  158.3741 C.3     1  UNL1        0.0609
     26 C         137.3061  141.0927  157.0531 C.3     1  UNL1        0.0575
     27 C         136.0270  140.9015  156.2932 C.3     1  UNL1        0.0160
     28 C         136.1489  142.2899  155.7388 C.3     1  UNL1        0.0028
     29 C         137.4279  142.4811  156.4985 C.3     1  UNL1        0.0160
@<TRIPOS>BOND
     1     7     8    1
     2     8     9   ar
     3     9    10   ar
     4    10    11   ar
     5    11    12   ar
     6    12    13   ar
     7    13    14   ar
     8    14    15   ar
     9    15    16   ar
    10    16    17    2
    11    16    18   ar
    12    18     1    1
    13     1     2   ar
    14     2     3   ar
    15     3     4   ar
    16     4    19    1
    17    19    20    1
    18    20    21    1
    19    21    22    1
    20    22    23    1
    21    23    26    1
    22    26    27    1
    23    27    28    1
    24    28    29    1
    25    23    24    1
    26    24    25    1
    27     4     5   ar
    28     5     6   ar
    29    18     8   ar
    30     6     1   ar
    31    15    10   ar
    32    25    20    1
    33    29    26    1
@<TRIPOS>MOLECULE
*****
 29 33 0 0 0
SMALL
GASTEIGER

@<TRIPOS>ATOM
      1 C         139.3047  139.3400  164.9478 C.ar    1  UNL1        0.0681
      2 C         140.0225  138.0948  164.5186 C.ar    1  UNL1        0.0208
      3 C         139.9448  137.6382  163.0919 C.ar    1  UNL1        0.0384
      4 C         139.1492  138.4269  162.0944 C.ar    1  UNL1        0.1385
      5 C         138.4314  139.6721  162.5236 C.ar    1  UNL1        0.0384
      6 C         138.5091  140.1286  163.9503 C.ar    1  UNL1        0.0208
      7 C         137.5161  138.1071  167.0168 C.3     1  UNL1        0.0723
      8 C         138.4882  139.1800  167.4091 C.ar    1  UNL1        0.1285
      9 N         138.5659  139.6365  168.8358 N.ar    1  UNL1       -0.2131
     10 C         139.5381  140.7095  169.2281 C.ar    1  UNL1        0.1681
     11 N         139.6158  141.1659  170.6548 N.ar    1  UNL1       -0.2249
     12 C         140.5879  142.2388  171.0470 C.ar    1  UNL1        0.1006
     13 C         141.4822  142.8553  170.0125 C.ar    1  UNL1        0.0209
     14 C         141.4045  142.3988  168.5858 C.ar    1  UNL1        0.0094
     15 C         140.4324  141.3259  168.1936 C.ar    1  UNL1        0.0923
     16 C         140.3546  140.8694  166.7668 C.ar    1  UNL1        0.2685
     17 O         141.2489  141.4858  165.7323 O.2     1  UNL1       -0.2665
     18 N         139.3825  139.7965  166.3746 N.ar    1  UNL1       -0.2625
     19 O         139.0714  137.9704  160.6677 O.3     1  UNL1       -0.4791
     20 C         140.1649  138.3279  159.7051 C.3     1  UNL1        0.1687
     21 C         141.5879  138.3892  160.1757 C.3     1  UNL1        0.0609
     22 C         142.6814  138.7468  159.2132 C.3     1  UNL1        0.0758
     23 N         142.3518  139.0431  157.7801 N.3     1  UNL1       -0.2737
     24 C         140.9289  138.9818  157.3096 C.3     1  UNL1        0.0758
     25 C         139.8354  138.6242  158.2721 C.3     1  UNL1        0.0609
     26 C         143.4453  139.4006  156.8176 C.3     1  UNL1        0.0575
     27 C         144.4426  140.5162  156.7119 C.3     1  UNL1        0.0160
     28 C         144.9917  139.9063  155.4564 C.3     1  UNL1        0.0028
     29 C         143.9946  138.7908  155.5620 C.3     1  UNL1        0.0160
@<TRIPOS>BOND
     1     7     8    1
     2     8     9   ar
     3     9    10   ar
     4    10    11   ar
     5    11    12   ar
     6    12    13   ar
     7    13    14   ar
     8    14    15   ar
     9    15    16   ar
    10    16    17    2
    11    16    18   ar
    12    18     1    1
    13     1     2   ar
    14     2     3   ar
    15     3     4   ar
    16     4    19    1
    17    19    20    1
    18    20    21    1
    19    21    22    1
    20    22    23    1
    21    23    26    1
    22    26    27    1
    23    27    28    1
    24    28    29    1
    25    23    24    1
    26    24    25    1
    27     4     5   ar
    28     5     6   ar
    29    18     8   ar
    30     6     1   ar
    31    15    10   ar
    32    25    20    1
    33    29    26    1
@<TRIPOS>MOLECULE
*****
 29 33 0 0 0
SMALL
GASTEIGER

@<TRIPOS>ATOM
      1 C         141.7370  138.7500  161.5630 C.ar    1  UNL1        0.0681
      2 C         141.0963  139.3590  160.3512 C.ar    1  UNL1        0.0208
      3 C         141.5407  138.9447  158.9797 C.ar    1  UNL1        0.0384
      4 C         142.6258  137.9214  158.8202 C.ar    1  UNL1        0.1385
      5 C         143.2665  137.3124  160.0321 C.ar    1  UNL1        0.0384
      6 C         142.8221  137.7267  161.4035 C.ar    1  UNL1        0.0208
      7 C         143.2079  140.9175  163.0254 C.3     1  UNL1        0.0723
      8 C         142.0281  140.2481  163.6657 C.ar    1  UNL1        0.1285
      9 N         141.5837  140.6625  165.0371 N.ar    1  UNL1       -0.2131
     10 C         140.4039  139.9931  165.6774 C.ar    1  UNL1        0.1681
     11 N         139.9595  140.4074  167.0488 N.ar    1  UNL1       -0.2249
     12 C         138.7797  139.7381  167.6890 C.ar    1  UNL1        0.1006
     13 C         138.0443  138.6543  166.9579 C.ar    1  UNL1        0.0209
     14 C         138.4886  138.2400  165.5865 C.ar    1  UNL1        0.0094
     15 C         139.6684  138.9093  164.9462 C.ar    1  UNL1        0.0923
     16 C         140.1128  138.4950  163.5748 C.ar    1  UNL1        0.2685
     17 O         139.3774  137.4112  162.8436 O.2     1  UNL1       -0.2665
     18 N         141.2926  139.1644  162.9345 N.ar    1  UNL1       -0.2625
     19 O         143.0702  137.5070  157.4487 O.3     1  UNL1       -0.4791
     20 C         142.7249  136.1431  156.9286 C.3     1  UNL1        0.1687
     21 C         141.6557  135.9857  155.8882 C.3     1  UNL1        0.0609
     22 C         141.3104  134.6218  155.3681 C.3     1  UNL1        0.0758
     23 N         142.0342  133.4153  155.8884 N.3     1  UNL1       -0.2737
     24 C         143.1033  133.5728  156.9287 C.3     1  UNL1        0.0758
     25 C         143.4486  134.9367  157.4488 C.3     1  UNL1        0.0609
     26 C         141.6889  132.0514  155.3683 C.3     1  UNL1        0.0575
     27 C         140.5565  131.4758  154.5705 C.3     1  UNL1        0.0160
     28 C         141.2005  130.1226  154.6327 C.3     1  UNL1        0.0028
     29 C         142.3329  130.6981  155.4304 C.3     1  UNL1        0.0160
@<TRIPOS>BOND
     1     7     8    1
     2     8     9   ar
     3     9    10   ar
     4    10    11   ar
     5    11    12   ar
     6    12    13   ar
     7    13    14   ar
     8    14    15   ar
     9    15    16   ar
    10    16    17    2
    11    16    18   ar
    12    18     1    1
    13     1     2   ar
    14     2     3   ar
    15     3     4   ar
    16     4    19    1
    17    19    20    1
    18    20    21    1
    19    21    22    1
    20    22    23    1
    21    23    26    1
    22    26    27    1
    23    27    28    1
    24    28    29    1
    25    23    24    1
    26    24    25    1
    27     4     5   ar
    28     5     6   ar
    29    18     8   ar
    30     6     1   ar
    31    15    10   ar
    32    25    20    1
    33    29    26    1
@<TRIPOS>MOLECULE
*****
 29 33 0 0 0
SMALL
GASTEIGER

@<TRIPOS>ATOM
      1 C         140.1814  139.0465  160.0926 C.ar    1  UNL1        0.0681
      2 C         140.2786  140.5207  160.3524 C.ar    1  UNL1        0.0208
      3 C         139.5571  141.1257  161.5200 C.ar    1  UNL1        0.0384
      4 C         138.7384  140.2565  162.4278 C.ar    1  UNL1        0.1385
      5 C         138.6411  138.7824  162.1681 C.ar    1  UNL1        0.0384
      6 C         139.3626  138.1774  161.0005 C.ar    1  UNL1        0.0208
      7 C         142.9639  137.9798  160.4379 C.3     1  UNL1        0.0723
      8 C         142.2942  137.9081  159.0976 C.ar    1  UNL1        0.1285
      9 N         143.0157  137.3032  157.9300 N.ar    1  UNL1       -0.2131
     10 C         142.3460  137.2316  156.5896 C.ar    1  UNL1        0.1681
     11 N         143.0675  136.6266  155.4220 N.ar    1  UNL1       -0.2249
     12 C         142.3978  136.5550  154.0818 C.ar    1  UNL1        0.1006
     13 C         141.0065  137.0884  153.9092 C.ar    1  UNL1        0.0209
     14 C         140.2849  137.6933  155.0768 C.ar    1  UNL1        0.0094
     15 C         140.9547  137.7649  156.4170 C.ar    1  UNL1        0.0923
     16 C         140.2331  138.3699  157.5847 C.ar    1  UNL1        0.2685
     17 O         138.8419  138.9033  157.4121 O.2     1  UNL1       -0.2665
     18 N         140.9029  138.4415  158.9249 N.ar    1  UNL1       -0.2625
     19 O         138.0168  140.8615  163.5955 O.3     1  UNL1       -0.4791
     20 C         138.7843  141.2911  164.8106 C.3     1  UNL1        0.1687
     21 C         139.3036  142.6947  164.9122 C.3     1  UNL1        0.0609
     22 C         140.0711  143.1243  166.1273 C.3     1  UNL1        0.0758
     23 N         140.3192  142.1503  167.2408 N.3     1  UNL1       -0.2737
     24 C         139.7999  140.7468  167.1392 C.3     1  UNL1        0.0758
     25 C         139.0324  140.3172  165.9241 C.3     1  UNL1        0.0609
     26 C         141.0867  142.5799  168.4559 C.3     1  UNL1        0.0575
     27 C         140.7584  143.3508  169.7001 C.3     1  UNL1        0.0160
     28 C         142.1720  143.1875  170.1743 C.3     1  UNL1        0.0028
     29 C         142.5003  142.4167  168.9302 C.3     1  UNL1        0.0160
@<TRIPOS>BOND
     1     7     8    1
     2     8     9   ar
     3     9    10   ar
     4    10    11   ar
     5    11    12   ar
     6    12    13   ar
     7    13    14   ar
     8    14    15   ar
     9    15    16   ar
    10    16    17    2
    11    16    18   ar
    12    18     1    1
    13     1     2   ar
    14     2     3   ar
    15     3     4   ar
    16     4    19    1
    17    19    20    1
    18    20    21    1
    19    21    22    1
    20    22    23    1
    21    23    26    1
    22    26    27    1
    23    27    28    1
    24    28    29    1
    25    23    24    1
    26    24    25    1
    27     4     5   ar
    28     5     6   ar
    29    18     8   ar
    30     6     1   ar
    31    15    10   ar
    32    25    20    1
    33    29    26    1
@<TRIPOS>MOLECULE
*****
 29 33 0 0 0
SMALL
GASTEIGER

@<TRIPOS>ATOM
      1 C         142.1787  138.9042  159.6800 C.ar    1  UNL1        0.0681
      2 C         140.7939  139.4672  159.8034 C.ar    1  UNL1        0.0208
      3 C         139.9295  139.0839  160.9678 C.ar    1  UNL1        0.0384
      4 C         140.4499  138.1375  162.0087 C.ar    1  UNL1        0.1385
      5 C         141.8347  137.5745  161.8852 C.ar    1  UNL1        0.0384
      6 C         142.6992  137.9579  160.7209 C.ar    1  UNL1        0.0208
      7 C         142.1982  137.2100  157.2042 C.3     1  UNL1        0.0723
      8 C         143.0529  138.4406  157.2777 C.ar    1  UNL1        0.1285
      9 N         143.9173  138.8239  156.1133 N.ar    1  UNL1       -0.2131
     10 C         144.7720  140.0545  156.1867 C.ar    1  UNL1        0.1681
     11 N         145.6364  140.4378  155.0223 N.ar    1  UNL1       -0.2249
     12 C         146.4910  141.6683  155.0958 C.ar    1  UNL1        0.1006
     13 C         146.4813  142.5154  156.3337 C.ar    1  UNL1        0.0209
     14 C         145.6169  142.1320  157.4981 C.ar    1  UNL1        0.0094
     15 C         144.7623  140.9016  157.4246 C.ar    1  UNL1        0.0923
     16 C         143.8978  140.5181  158.5890 C.ar    1  UNL1        0.2685
     17 O         143.8881  141.3653  159.8269 O.2     1  UNL1       -0.2665
     18 N         143.0432  139.2877  158.5155 N.ar    1  UNL1       -0.2625
     19 O         139.5855  137.7541  163.1731 O.3     1  UNL1       -0.4791
     20 C         139.6560  138.5382  164.4498 C.3     1  UNL1        0.1687
     21 C         138.5368  138.4534  165.4450 C.3     1  UNL1        0.0609
     22 C         138.6074  139.2376  166.7217 C.3     1  UNL1        0.0758
     23 N         139.7972  140.1066  167.0033 N.3     1  UNL1       -0.2737
     24 C         140.9163  140.1914  166.0082 C.3     1  UNL1        0.0758
     25 C         140.8457  139.4073  164.7315 C.3     1  UNL1        0.0609
     26 C         139.8677  140.8908  168.2801 C.3     1  UNL1        0.0575
     27 C         140.4320  142.2228  168.6769 C.3     1  UNL1        0.0160
     28 C         139.9675  141.9998  170.0856 C.3     1  UNL1        0.0028
     29 C         139.4032  140.6679  169.6888 C.3     1  UNL1        0.0160
@<TRIPOS>BOND
     1     7     8    1
     2     8     9   ar
     3     9    10   ar
     4    10    11   ar
     5    11    12   ar
     6    12    13   ar
     7    13    14   ar
     8    14    15   ar
     9    15    16   ar
    10    16    17    2
    11    16    18   ar
    12    18     1    1
    13     1     2   ar
    14     2     3   ar
    15     3     4   ar
    16     4    19    1
    17    19    20    1
    18    20    21    1
    19    21    22    1
    20    22    23    1
    21    23    26    1
    22    26    27    1
    23    27    28    1
    24    28    29    1
    25    23    24    1
    26    24    25    1
    27     4     5   ar
    28     5     6   ar
    29    18     8   ar
    30     6     1   ar
    31    15    10   ar
    32    25    20    1
    33    29    26    1
@<TRIPOS>MOLECULE
*****
 29 33 0 0 0
SMALL
GASTEIGER

@<TRIPOS>ATOM
      1 C         140.5788  139.2145  164.7627 C.ar    1  UNL1        0.0681
      2 C         140.5737  137.7910  164.2900 C.ar    1  UNL1        0.0208
      3 C         140.6906  137.4865  162.8259 C.ar    1  UNL1        0.0384
      4 C         140.8126  138.6055  161.8345 C.ar    1  UNL1        0.1385
      5 C         140.8177  140.0290  162.3072 C.ar    1  UNL1        0.0384
      6 C         140.7008  140.3336  163.7713 C.ar    1  UNL1        0.0208
      7 C         137.9163  139.0086  166.1297 C.3     1  UNL1        0.0723
      8 C         139.1307  139.4161  166.9103 C.ar    1  UNL1        0.1285
      9 N         139.0138  139.7206  168.3744 N.ar    1  UNL1       -0.2131
     10 C         140.2282  140.1280  169.1551 C.ar    1  UNL1        0.1681
     11 N         140.1112  140.4325  170.6192 N.ar    1  UNL1       -0.2249
     12 C         141.3256  140.8399  171.3997 C.ar    1  UNL1        0.1006
     13 C         142.6568  140.9428  170.7162 C.ar    1  UNL1        0.0209
     14 C         142.7738  140.6383  169.2522 C.ar    1  UNL1        0.0094
     15 C         141.5594  140.2309  168.4716 C.ar    1  UNL1        0.0923
     16 C         141.6763  139.9264  167.0074 C.ar    1  UNL1        0.2685
     17 O         143.0075  140.0294  166.3239 O.2     1  UNL1       -0.2665
     18 N         140.4620  139.5190  166.2268 N.ar    1  UNL1       -0.2625
     19 O         140.9294  138.3010  160.3704 O.3     1  UNL1       -0.4791
     20 C         139.9819  138.9338  159.3948 C.3     1  UNL1        0.1687
     21 C         140.1922  138.7536  157.9205 C.3     1  UNL1        0.0609
     22 C         139.2447  139.3864  156.9449 C.3     1  UNL1        0.0758
     23 N         138.0870  140.1995  157.4436 N.3     1  UNL1       -0.2737
     24 C         137.8767  140.3797  158.9178 C.3     1  UNL1        0.0758
     25 C         138.8242  139.7468  159.8934 C.3     1  UNL1        0.0609
     26 C         137.1395  140.8323  156.4680 C.3     1  UNL1        0.0575
     27 C         135.6488  140.8594  156.3024 C.3     1  UNL1        0.0160
     28 C         135.7995  141.7273  155.0883 C.3     1  UNL1        0.0028
     29 C         137.2900  141.7001  155.2538 C.3     1  UNL1        0.0160
@<TRIPOS>BOND
     1     7     8    1
     2     8     9   ar
     3     9    10   ar
     4    10    11   ar
     5    11    12   ar
     6    12    13   ar
     7    13    14   ar
     8    14    15   ar
     9    15    16   ar
    10    16    17    2
    11    16    18   ar
    12    18     1    1
    13     1     2   ar
    14     2     3   ar
    15     3     4   ar
    16     4    19    1
    17    19    20    1
    18    20    21    1
    19    21    22    1
    20    22    23    1
    21    23    26    1
    22    26    27    1
    23    27    28    1
    24    28    29    1
    25    23    24    1
    26    24    25    1
    27     4     5   ar
    28     5     6   ar
    29    18     8   ar
    30     6     1   ar
    31    15    10   ar
    32    25    20    1
    33    29    26    1
@<TRIPOS>MOLECULE
*****
 29 33 0 0 0
SMALL
GASTEIGER

@<TRIPOS>ATOM
      1 C         140.4350  139.2847  159.8887 C.ar    1  UNL1        0.0681
      2 C         139.5351  138.7246  158.8274 C.ar    1  UNL1        0.0208
      3 C         140.1222  138.0077  157.6478 C.ar    1  UNL1        0.0384
      4 C         141.6092  137.8509  157.5297 C.ar    1  UNL1        0.1385
      5 C         142.5092  138.4110  158.5910 C.ar    1  UNL1        0.0384
      6 C         141.9221  139.1279  159.7705 C.ar    1  UNL1        0.0208
      7 C         139.7952  137.7703  162.3981 C.3     1  UNL1        0.0723
      8 C         139.5279  139.2445  162.3230 C.ar    1  UNL1        0.1285
      9 N         138.9408  139.9613  163.5025 N.ar    1  UNL1       -0.2131
     10 C         138.6734  141.4354  163.4273 C.ar    1  UNL1        0.1681
     11 N         138.0863  142.1523  164.6068 N.ar    1  UNL1       -0.2249
     12 C         137.8190  143.6264  164.5316 C.ar    1  UNL1        0.1006
     13 C         138.1389  144.3835  163.2769 C.ar    1  UNL1        0.0209
     14 C         138.7261  143.6667  162.0974 C.ar    1  UNL1        0.0094
     15 C         138.9933  142.1926  162.1726 C.ar    1  UNL1        0.0923
     16 C         139.5805  141.4757  160.9930 C.ar    1  UNL1        0.2685
     17 O         139.9004  142.2329  159.7383 O.2     1  UNL1       -0.2665
     18 N         139.8478  140.0016  161.0682 N.ar    1  UNL1       -0.2625
     19 O         142.1964  137.1339  156.3501 O.3     1  UNL1       -0.4791
     20 C         142.3008  135.6376  156.3578 C.3     1  UNL1        0.1687
     21 C         141.4489  134.8215  155.4313 C.3     1  UNL1        0.0609
     22 C         141.5533  133.3252  155.4391 C.3     1  UNL1        0.0758
     23 N         142.5097  132.6449  156.3733 N.3     1  UNL1       -0.2737
     24 C         143.3615  133.4610  157.2997 C.3     1  UNL1        0.0758
     25 C         143.2571  134.9573  157.2920 C.3     1  UNL1        0.0609
     26 C         142.6141  131.1486  156.3810 C.3     1  UNL1        0.0575
     27 C         142.0289  130.0402  155.5569 C.3     1  UNL1        0.0160
     28 C         142.7618  129.0324  156.3919 C.3     1  UNL1        0.0028
     29 C         143.3469  130.1407  157.2160 C.3     1  UNL1        0.0160
@<TRIPOS>BOND
     1     7     8    1
     2     8     9   ar
     3     9    10   ar
     4    10    11   ar
     5    11    12   ar
     6    12    13   ar
     7    13    14   ar
     8    14    15   ar
     9    15    16   ar
    10    16    17    2
    11    16    18   ar
    12    18     1    1
    13     1     2   ar
    14     2     3   ar
    15     3     4   ar
    16     4    19    1
    17    19    20    1
    18    20    21    1
    19    21    22    1
    20    22    23    1
    21    23    26    1
    22    26    27    1
    23    27    28    1
    24    28    29    1
    25    23    24    1
    26    24    25    1
    27     4     5   ar
    28     5     6   ar
    29    18     8   ar
    30     6     1   ar
    31    15    10   ar
    32    25    20    1
    33    29    26    1
