@<TRIPOS>MOLECULE
*****
 35 40 0 0 0
SMALL
GASTEIGER

@<TRIPOS>ATOM
      1 S         140.3063  144.3626  159.1667 S.3     1  UNL1       -0.0756
      2 C         139.8420  140.8915  160.8403 C.ar    1  UNL1        0.1669
      3 N         138.4964  141.0907  160.2080 N.ar    1  UNL1       -0.1282
      4 N         138.5067  142.4152  159.5041 N.ar    1  UNL1       -0.1221
      5 C         139.8584  143.0347  159.7014 C.ar    1  UNL1        0.1932
      6 N         140.6838  142.0930  160.5272 N.ar    1  UNL1       -0.2884
      7 C         142.1019  142.3138  160.9634 C.3     1  UNL1        0.1340
      8 C         137.8311  138.6816  167.0308 C.3     1  UNL1        0.0521
      9 C         138.4409  138.9362  165.6844 C.ar    1  UNL1        0.0593
     10 C         138.0124  140.1276  164.8801 C.ar    1  UNL1        0.0147
     11 C         138.6222  140.3823  163.5335 C.ar    1  UNL1        0.0028
     12 C         139.6607  139.4454  162.9912 C.ar    1  UNL1        0.0206
     13 C         140.2706  139.7000  161.6446 C.ar    1  UNL1        0.0374
     14 C         141.3091  138.7633  161.1024 C.ar    1  UNL1        0.0031
     15 C         141.7376  137.5719  161.9067 C.ar    1  UNL1        0.0016
     16 C         141.1277  137.3172  163.2532 C.ar    1  UNL1        0.0191
     17 C         140.0893  138.2540  163.7955 C.ar    1  UNL1        0.0810
     18 N         139.4794  137.9994  165.1421 N.ar    1  UNL1       -0.2497
     19 C         140.3597  145.5567  160.0730 C.3     1  UNL1        0.0666
     20 C         139.9845  145.4184  161.5187 C.3     1  UNL1        0.0294
     21 C         141.0151  145.6410  162.5856 C.3     1  UNL1        0.0730
     22 N         141.1458  144.6653  163.7174 N.3     1  UNL1       -0.2720
     23 C         142.5344  144.1679  163.9908 C.3     1  UNL1        0.0768
     24 C         142.9907  143.1984  165.0405 C.3     1  UNL1        0.0434
     25 C         142.1712  142.4869  166.0760 C.ar    1  UNL1       -0.0230
     26 C         143.0236  141.6008  166.9354 C.ar    1  UNL1        0.0178
     27 C         142.3977  140.7969  168.0363 C.ar    1  UNL1        0.1187
     28 N         142.9788  139.8436  169.0381 N.ar    1  UNL1       -0.2043
     29 C         141.8598  139.3367  169.8988 C.ar    1  UNL1        0.2851
     30 O         140.5871  139.9767  169.4290 O.2     1  UNL1       -0.4312
     31 C         140.9196  140.8792  168.2779 C.ar    1  UNL1        0.1645
     32 C         140.0673  141.7652  167.4185 C.ar    1  UNL1        0.0346
     33 C         140.6932  142.5691  166.3176 C.ar    1  UNL1       -0.0216
     34 C         139.6694  143.3832  165.5833 C.3     1  UNL1        0.0434
     35 C         139.8708  144.3161  164.4262 C.3     1  UNL1        0.0768
@<TRIPOS>BOND
     1     8     9    1
     2     9    10   ar
     3    10    11   ar
     4    11    12   ar
     5    12    13   ar
     6    13     2    1
     7     2     3   ar
     8     3     4   ar
     9     4     5   ar
    10     5     1    1
    11     1    19    1
    12    19    20    1
    13    20    21    1
    14    21    22    1
    15    22    23    1
    16    23    24    1
    17    24    25    1
    18    25    26   ar
    19    26    27   ar
    20    27    28   ar
    21    28    29   ar
    22    29    30   ar
    23    30    31   ar
    24    31    32   ar
    25    32    33   ar
    26    33    34    1
    27    34    35    1
    28     5     6   ar
    29     6     7    1
    30    13    14   ar
    31    14    15   ar
    32    15    16   ar
    33    16    17   ar
    34    17    18   ar
    35    18     9   ar
    36    17    12   ar
    37     6     2   ar
    38    35    22    1
    39    33    25   ar
    40    31    27   ar
@<TRIPOS>MOLECULE
*****
 35 40 0 0 0
SMALL
GASTEIGER

@<TRIPOS>ATOM
      1 S         139.8864  143.1156  158.3648 S.3     1  UNL1       -0.0756
      2 C         140.3828  141.1741  161.6889 C.ar    1  UNL1        0.1669
      3 N         141.7083  140.9517  161.0227 N.ar    1  UNL1       -0.1282
      4 N         141.6835  141.6520  159.6964 N.ar    1  UNL1       -0.1221
      5 C         140.3430  142.3071  159.5429 C.ar    1  UNL1        0.1932
      6 N         139.5390  142.0117  160.7744 N.ar    1  UNL1       -0.2884
      7 C         138.1374  142.4730  161.0441 C.3     1  UNL1        0.1340
      8 C         144.0106  137.9586  166.5623 C.3     1  UNL1        0.0521
      9 C         143.0013  138.6316  165.6802 C.ar    1  UNL1        0.0593
     10 C         143.4109  139.1550  164.3355 C.ar    1  UNL1        0.0147
     11 C         142.4016  139.8280  163.4532 C.ar    1  UNL1        0.0028
     12 C         140.9825  139.9777  163.9158 C.ar    1  UNL1        0.0206
     13 C         139.9731  140.6507  163.0337 C.ar    1  UNL1        0.0374
     14 C         138.5541  140.8003  163.4962 C.ar    1  UNL1        0.0031
     15 C         138.1445  140.2769  164.8409 C.ar    1  UNL1        0.0016
     16 C         139.1539  139.6039  165.7231 C.ar    1  UNL1        0.0191
     17 C         140.5729  139.4543  165.2605 C.ar    1  UNL1        0.0810
     18 N         141.5823  138.7812  166.1427 N.ar    1  UNL1       -0.2497
     19 C         140.0348  144.6082  158.3767 C.3     1  UNL1        0.0666
     20 C         140.8825  145.2693  159.4227 C.3     1  UNL1        0.0294
     21 C         140.2547  145.7737  160.6882 C.3     1  UNL1        0.0730
     22 N         140.5309  145.0816  161.9901 N.3     1  UNL1       -0.2720
     23 C         139.3773  145.0092  162.9462 C.3     1  UNL1        0.0768
     24 C         139.3321  144.3908  164.3120 C.3     1  UNL1        0.0434
     25 C         140.4293  143.6920  165.0591 C.ar    1  UNL1       -0.0230
     26 C         139.9617  143.2192  166.4037 C.ar    1  UNL1        0.0178
     27 C         140.9075  142.4934  167.3140 C.ar    1  UNL1        0.1187
     28 N         140.7334  141.9134  168.6863 N.ar    1  UNL1       -0.2043
     29 C         142.0391  141.3020  169.1002 C.ar    1  UNL1        0.2851
     30 O         143.0202  141.5042  167.9837 O.2     1  UNL1       -0.4312
     31 C         142.3209  142.2405  166.8797 C.ar    1  UNL1        0.1645
     32 C         142.7883  142.7134  165.5352 C.ar    1  UNL1        0.0346
     33 C         141.8425  143.4392  164.6249 C.ar    1  UNL1       -0.0216
     34 C         142.5078  143.8226  163.3363 C.3     1  UNL1        0.0434
     35 C         141.9241  144.5535  162.1637 C.3     1  UNL1        0.0768
@<TRIPOS>BOND
     1     8     9    1
     2     9    10   ar
     3    10    11   ar
     4    11    12   ar
     5    12    13   ar
     6    13     2    1
     7     2     3   ar
     8     3     4   ar
     9     4     5   ar
    10     5     1    1
    11     1    19    1
    12    19    20    1
    13    20    21    1
    14    21    22    1
    15    22    23    1
    16    23    24    1
    17    24    25    1
    18    25    26   ar
    19    26    27   ar
    20    27    28   ar
    21    28    29   ar
    22    29    30   ar
    23    30    31   ar
    24    31    32   ar
    25    32    33   ar
    26    33    34    1
    27    34    35    1
    28     5     6   ar
    29     6     7    1
    30    13    14   ar
    31    14    15   ar
    32    15    16   ar
    33    16    17   ar
    34    17    18   ar
    35    18     9   ar
    36    17    12   ar
    37     6     2   ar
    38    35    22    1
    39    33    25   ar
    40    31    27   ar
@<TRIPOS>MOLECULE
*****
 35 40 0 0 0
SMALL
GASTEIGER

@<TRIPOS>ATOM
      1 S         143.6882  142.1460  169.6860 S.3     1  UNL1       -0.0756
      2 C         142.8756  140.8126  166.1326 C.ar    1  UNL1        0.1669
      3 N         143.3174  142.2122  165.8229 N.ar    1  UNL1       -0.1282
      4 N         143.6755  142.8820  167.1164 N.ar    1  UNL1       -0.1221
      5 C         143.4551  141.8965  168.2254 C.ar    1  UNL1        0.1932
      6 N         142.9607  140.6174  167.6174 N.ar    1  UNL1       -0.2884
      7 C         142.6126  139.3634  168.3631 C.3     1  UNL1        0.1340
      8 C         141.6119  141.3488  159.3972 C.3     1  UNL1        0.0521
      9 C         141.8158  140.9586  160.8310 C.ar    1  UNL1        0.0593
     10 C         142.2640  141.9832  161.8307 C.ar    1  UNL1        0.0147
     11 C         142.4679  141.5930  163.2647 C.ar    1  UNL1        0.0028
     12 C         142.2235  140.1781  163.6989 C.ar    1  UNL1        0.0206
     13 C         142.4274  139.7879  165.1329 C.ar    1  UNL1        0.0374
     14 C         142.1830  138.3731  165.5671 C.ar    1  UNL1        0.0031
     15 C         141.7348  137.3485  164.5675 C.ar    1  UNL1        0.0016
     16 C         141.5309  137.7388  163.1335 C.ar    1  UNL1        0.0191
     17 C         141.7753  139.1536  162.6992 C.ar    1  UNL1        0.0810
     18 N         141.5714  139.5438  161.2653 N.ar    1  UNL1       -0.2497
     19 C         142.7024  142.9556  170.4752 C.3     1  UNL1        0.0666
     20 C         141.3720  143.3072  169.8782 C.3     1  UNL1        0.0294
     21 C         140.3331  142.2431  169.6821 C.3     1  UNL1        0.0730
     22 N         139.9227  141.8420  168.2962 N.3     1  UNL1       -0.2720
     23 C         140.0129  142.9171  167.2539 C.3     1  UNL1        0.0768
     24 C         139.6791  142.8345  165.7939 C.3     1  UNL1        0.0434
     25 C         139.1725  141.6565  165.0155 C.ar    1  UNL1       -0.0230
     26 C         138.9660  142.0023  163.5705 C.ar    1  UNL1        0.0178
     27 C         138.4617  140.9618  162.6150 C.ar    1  UNL1        0.1187
     28 N         138.1634  141.0087  161.1458 N.ar    1  UNL1       -0.2043
     29 C         137.6813  139.6514  160.7271 C.ar    1  UNL1        0.2851
     30 O         137.6816  138.7656  161.9376 O.2     1  UNL1       -0.4312
     31 C         138.1640  139.5755  163.1045 C.ar    1  UNL1        0.1645
     32 C         138.3705  139.2297  164.5494 C.ar    1  UNL1        0.0346
     33 C         138.8748  140.2702  165.5048 C.ar    1  UNL1       -0.0216
     34 C         139.0100  139.7195  166.8936 C.3     1  UNL1        0.0434
     35 C         139.4764  140.4190  168.1358 C.3     1  UNL1        0.0768
@<TRIPOS>BOND
     1     8     9    1
     2     9    10   ar
     3    10    11   ar
     4    11    12   ar
     5    12    13   ar
     6    13     2    1
     7     2     3   ar
     8     3     4   ar
     9     4     5   ar
    10     5     1    1
    11     1    19    1
    12    19    20    1
    13    20    21    1
    14    21    22    1
    15    22    23    1
    16    23    24    1
    17    24    25    1
    18    25    26   ar
    19    26    27   ar
    20    27    28   ar
    21    28    29   ar
    22    29    30   ar
    23    30    31   ar
    24    31    32   ar
    25    32    33   ar
    26    33    34    1
    27    34    35    1
    28     5     6   ar
    29     6     7    1
    30    13    14   ar
    31    14    15   ar
    32    15    16   ar
    33    16    17   ar
    34    17    18   ar
    35    18     9   ar
    36    17    12   ar
    37     6     2   ar
    38    35    22    1
    39    33    25   ar
    40    31    27   ar
@<TRIPOS>MOLECULE
*****
 35 40 0 0 0
SMALL
GASTEIGER

@<TRIPOS>ATOM
      1 S         143.6296  141.1384  159.1379 S.3     1  UNL1       -0.0756
      2 C         141.6872  143.2739  161.7325 C.ar    1  UNL1        0.1669
      3 N         143.0102  143.9806  161.7078 N.ar    1  UNL1       -0.1282
      4 N         143.8988  143.2665  160.7328 N.ar    1  UNL1       -0.1221
      5 C         143.1251  142.1187  160.1550 C.ar    1  UNL1        0.1932
      6 N         141.7583  142.1233  160.7728 N.ar    1  UNL1       -0.2884
      7 C         140.6559  141.1484  160.4821 C.3     1  UNL1        0.1340
      8 C         140.6991  142.9762  168.5284 C.3     1  UNL1        0.0521
      9 C         140.6497  143.1451  167.0389 C.ar    1  UNL1        0.0593
     10 C         141.8354  142.7673  166.2015 C.ar    1  UNL1        0.0147
     11 C         141.7861  142.9362  164.7118 C.ar    1  UNL1        0.0028
     12 C         140.5508  143.4828  164.0596 C.ar    1  UNL1        0.0206
     13 C         140.5014  143.6517  162.5699 C.ar    1  UNL1        0.0374
     14 C         139.2662  144.1983  161.9177 C.ar    1  UNL1        0.0031
     15 C         138.0804  144.5761  162.7551 C.ar    1  UNL1        0.0016
     16 C         138.1298  144.4072  164.2447 C.ar    1  UNL1        0.0191
     17 C         139.3650  143.8606  164.8970 C.ar    1  UNL1        0.0810
     18 N         139.4145  143.6917  166.3866 N.ar    1  UNL1       -0.2497
     19 C         143.8426  139.7037  159.5203 C.3     1  UNL1        0.0666
     20 C         143.9672  139.3233  160.9659 C.3     1  UNL1        0.0294
     21 C         142.9321  138.4434  161.6018 C.3     1  UNL1        0.0730
     22 N         142.5012  138.6941  163.0166 N.3     1  UNL1       -0.2720
     23 C         143.6043  138.7591  164.0310 C.3     1  UNL1        0.0768
     24 C         143.5028  138.9928  165.5092 C.3     1  UNL1        0.0434
     25 C         142.2732  139.2191  166.3381 C.ar    1  UNL1       -0.0230
     26 C         142.6160  139.4119  167.7857 C.ar    1  UNL1        0.0178
     27 C         141.5270  139.6533  168.7885 C.ar    1  UNL1        0.1187
     28 N         141.5597  139.8767  170.2714 N.ar    1  UNL1       -0.2043
     29 C         140.1481  140.0634  170.7432 C.ar    1  UNL1        0.2851
     30 O         139.2430  139.9554  169.5520 O.2     1  UNL1       -0.4312
     31 C         140.0952  139.7019  168.3439 C.ar    1  UNL1        0.1645
     32 C         139.7525  139.5091  166.8963 C.ar    1  UNL1        0.0346
     33 C         140.8415  139.2677  165.8935 C.ar    1  UNL1       -0.0216
     34 C         140.2857  139.1019  164.5101 C.3     1  UNL1        0.0434
     35 C         141.0243  138.8467  163.2298 C.3     1  UNL1        0.0768
@<TRIPOS>BOND
     1     8     9    1
     2     9    10   ar
     3    10    11   ar
     4    11    12   ar
     5    12    13   ar
     6    13     2    1
     7     2     3   ar
     8     3     4   ar
     9     4     5   ar
    10     5     1    1
    11     1    19    1
    12    19    20    1
    13    20    21    1
    14    21    22    1
    15    22    23    1
    16    23    24    1
    17    24    25    1
    18    25    26   ar
    19    26    27   ar
    20    27    28   ar
    21    28    29   ar
    22    29    30   ar
    23    30    31   ar
    24    31    32   ar
    25    32    33   ar
    26    33    34    1
    27    34    35    1
    28     5     6   ar
    29     6     7    1
    30    13    14   ar
    31    14    15   ar
    32    15    16   ar
    33    16    17   ar
    34    17    18   ar
    35    18     9   ar
    36    17    12   ar
    37     6     2   ar
    38    35    22    1
    39    33    25   ar
    40    31    27   ar
@<TRIPOS>MOLECULE
*****
 35 40 0 0 0
SMALL
GASTEIGER

@<TRIPOS>ATOM
      1 S         142.8303  139.0666  158.6578 S.3     1  UNL1       -0.0756
      2 C         143.3483  141.5539  161.5922 C.ar    1  UNL1        0.1669
      3 N         144.2148  140.4090  162.0263 N.ar    1  UNL1       -0.1282
      4 N         144.1262  139.3379  160.9799 N.ar    1  UNL1       -0.1221
      5 C         143.2050  139.8208  159.8991 C.ar    1  UNL1        0.1932
      6 N         142.7242  141.1903  160.2775 N.ar    1  UNL1       -0.2884
      7 C         141.7844  142.0462  159.4811 C.3     1  UNL1        0.1340
      8 C         137.7983  144.0620  164.7791 C.3     1  UNL1        0.0521
      9 C         139.1341  143.7558  164.1697 C.ar    1  UNL1        0.0593
     10 C         139.3404  142.4727  163.4206 C.ar    1  UNL1        0.0147
     11 C         140.6763  142.1663  162.8111 C.ar    1  UNL1        0.0028
     12 C         141.8061  143.1433  162.9507 C.ar    1  UNL1        0.0206
     13 C         143.1421  142.8370  162.3412 C.ar    1  UNL1        0.0374
     14 C         144.2717  143.8139  162.4808 C.ar    1  UNL1        0.0031
     15 C         144.0655  145.0970  163.2299 C.ar    1  UNL1        0.0016
     16 C         142.7295  145.4032  163.8393 C.ar    1  UNL1        0.0191
     17 C         141.5998  144.4264  163.6998 C.ar    1  UNL1        0.0810
     18 N         140.2638  144.7326  164.3092 N.ar    1  UNL1       -0.2497
     19 C         141.5119  138.3554  158.5815 C.3     1  UNL1        0.0666
     20 C         140.3373  138.8675  159.3613 C.3     1  UNL1        0.0294
     21 C         139.6958  138.0028  160.4057 C.3     1  UNL1        0.0730
     22 N         139.8210  138.3616  161.8568 N.3     1  UNL1       -0.2720
     23 C         141.2132  138.3398  162.4149 C.3     1  UNL1        0.0768
     24 C         141.6656  138.6458  163.8119 C.3     1  UNL1        0.0434
     25 C         140.8375  139.0491  164.9959 C.ar    1  UNL1       -0.0230
     26 C         141.6884  139.2613  166.2129 C.ar    1  UNL1        0.0178
     27 C         141.0543  139.6705  167.5093 C.ar    1  UNL1        0.1187
     28 N         141.6322  139.9509  168.8648 N.ar    1  UNL1       -0.2043
     29 C         140.5045  140.3210  169.7819 C.ar    1  UNL1        0.2851
     30 O         139.2296  140.2695  168.9932 O.2     1  UNL1       -0.4312
     31 C         139.5694  139.8674  167.5886 C.ar    1  UNL1        0.1645
     32 C         138.7186  139.6551  166.3716 C.ar    1  UNL1        0.0346
     33 C         139.3527  139.2460  165.0753 C.ar    1  UNL1       -0.0216
     34 C         138.3290  139.0882  163.9902 C.3     1  UNL1        0.0434
     35 C         138.5374  138.6946  162.5579 C.3     1  UNL1        0.0768
@<TRIPOS>BOND
     1     8     9    1
     2     9    10   ar
     3    10    11   ar
     4    11    12   ar
     5    12    13   ar
     6    13     2    1
     7     2     3   ar
     8     3     4   ar
     9     4     5   ar
    10     5     1    1
    11     1    19    1
    12    19    20    1
    13    20    21    1
    14    21    22    1
    15    22    23    1
    16    23    24    1
    17    24    25    1
    18    25    26   ar
    19    26    27   ar
    20    27    28   ar
    21    28    29   ar
    22    29    30   ar
    23    30    31   ar
    24    31    32   ar
    25    32    33   ar
    26    33    34    1
    27    34    35    1
    28     5     6   ar
    29     6     7    1
    30    13    14   ar
    31    14    15   ar
    32    15    16   ar
    33    16    17   ar
    34    17    18   ar
    35    18     9   ar
    36    17    12   ar
    37     6     2   ar
    38    35    22    1
    39    33    25   ar
    40    31    27   ar
@<TRIPOS>MOLECULE
*****
 35 40 0 0 0
SMALL
GASTEIGER

@<TRIPOS>ATOM
      1 S         137.3534  139.7581  161.0356 S.3     1  UNL1       -0.0756
      2 C         139.2828  142.5098  162.9774 C.ar    1  UNL1        0.1669
      3 N         138.0877  142.3142  163.8627 N.ar    1  UNL1       -0.1282
      4 N         137.2196  141.2596  163.2430 N.ar    1  UNL1       -0.1221
      5 C         137.8780  140.8034  161.9748 C.ar    1  UNL1        0.1932
      6 N         139.1532  141.5761  161.8107 N.ar    1  UNL1       -0.2884
      7 C         140.1277  141.4392  160.6786 C.3     1  UNL1        0.1340
      8 C         145.9877  141.4114  164.0203 C.3     1  UNL1        0.0521
      9 C         144.5933  141.9261  163.8194 C.ar    1  UNL1        0.0593
     10 C         143.4664  140.9655  163.5799 C.ar    1  UNL1        0.0147
     11 C         142.0718  141.4802  163.3791 C.ar    1  UNL1        0.0028
     12 C         141.8042  142.9557  163.4178 C.ar    1  UNL1        0.0206
     13 C         140.4097  143.4705  163.2169 C.ar    1  UNL1        0.0374
     14 C         140.1420  144.9459  163.2556 C.ar    1  UNL1        0.0031
     15 C         141.2689  145.9065  163.4951 C.ar    1  UNL1        0.0016
     16 C         142.6635  145.3917  163.6959 C.ar    1  UNL1        0.0191
     17 C         142.9311  143.9163  163.6573 C.ar    1  UNL1        0.0810
     18 N         144.3256  143.4015  163.8581 N.ar    1  UNL1       -0.2497
     19 C         137.7399  138.3208  161.2216 C.3     1  UNL1        0.0666
     20 C         139.0221  137.9729  161.9181 C.3     1  UNL1        0.0294
     21 C         138.9909  137.3915  163.3004 C.3     1  UNL1        0.0730
     22 N         139.5595  138.1655  164.4527 N.3     1  UNL1       -0.2720
     23 C         141.0401  138.0366  164.6559 C.3     1  UNL1        0.0768
     24 C         141.8991  138.6765  165.7060 C.3     1  UNL1        0.0434
     25 C         141.4897  139.6033  166.8121 C.ar    1  UNL1       -0.0230
     26 C         142.6669  140.0157  167.6454 C.ar    1  UNL1        0.0178
     27 C         142.4745  140.9439  168.8079 C.ar    1  UNL1        0.1187
     28 N         143.4384  141.5207  169.8019 N.ar    1  UNL1       -0.2043
     29 C         142.6647  142.3929  170.7456 C.ar    1  UNL1        0.2851
     30 O         141.2225  142.3552  170.3347 O.2     1  UNL1       -0.4312
     31 C         141.1050  141.4597  169.1371 C.ar    1  UNL1        0.1645
     32 C         139.9279  141.0472  168.3039 C.ar    1  UNL1        0.0346
     33 C         140.1203  140.1190  167.1414 C.ar    1  UNL1       -0.0216
     34 C         138.8218  139.8354  166.4458 C.3     1  UNL1        0.0434
     35 C         138.5723  138.9660  165.2493 C.3     1  UNL1        0.0768
@<TRIPOS>BOND
     1     8     9    1
     2     9    10   ar
     3    10    11   ar
     4    11    12   ar
     5    12    13   ar
     6    13     2    1
     7     2     3   ar
     8     3     4   ar
     9     4     5   ar
    10     5     1    1
    11     1    19    1
    12    19    20    1
    13    20    21    1
    14    21    22    1
    15    22    23    1
    16    23    24    1
    17    24    25    1
    18    25    26   ar
    19    26    27   ar
    20    27    28   ar
    21    28    29   ar
    22    29    30   ar
    23    30    31   ar
    24    31    32   ar
    25    32    33   ar
    26    33    34    1
    27    34    35    1
    28     5     6   ar
    29     6     7    1
    30    13    14   ar
    31    14    15   ar
    32    15    16   ar
    33    16    17   ar
    34    17    18   ar
    35    18     9   ar
    36    17    12   ar
    37     6     2   ar
    38    35    22    1
    39    33    25   ar
    40    31    27   ar
@<TRIPOS>MOLECULE
*****
 35 40 0 0 0
SMALL
GASTEIGER

@<TRIPOS>ATOM
      1 S         141.5447  143.5025  157.8029 S.3     1  UNL1       -0.0756
      2 C         143.2067  142.7512  161.2291 C.ar    1  UNL1        0.1669
      3 N         142.8258  144.1918  161.4014 N.ar    1  UNL1       -0.1282
      4 N         142.1569  144.6484  160.1389 N.ar    1  UNL1       -0.1221
      5 C         142.1243  143.4903  159.1863 C.ar    1  UNL1        0.1932
      6 N         142.7732  142.3176  159.8601 N.ar    1  UNL1       -0.2884
      7 C         142.9564  140.9513  159.2688 C.3     1  UNL1        0.1340
      8 C         141.1908  136.9831  164.3780 C.3     1  UNL1        0.0521
      9 C         141.8679  138.2109  163.8453 C.ar    1  UNL1        0.0593
     10 C         141.1752  139.0676  162.8274 C.ar    1  UNL1        0.0147
     11 C         141.8523  140.2954  162.2946 C.ar    1  UNL1        0.0028
     12 C         143.2223  140.6666  162.7798 C.ar    1  UNL1        0.0206
     13 C         143.8995  141.8945  162.2470 C.ar    1  UNL1        0.0374
     14 C         145.2695  142.2656  162.7322 C.ar    1  UNL1        0.0031
     15 C         145.9623  141.4090  163.7501 C.ar    1  UNL1        0.0016
     16 C         145.2851  140.1811  164.2829 C.ar    1  UNL1        0.0191
     17 C         143.9151  139.8099  163.7977 C.ar    1  UNL1        0.0810
     18 N         143.2379  138.5821  164.3304 N.ar    1  UNL1       -0.2497
     19 C         140.1378  143.0349  157.5750 C.3     1  UNL1        0.0666
     20 C         139.4750  142.1354  158.5758 C.3     1  UNL1        0.0294
     21 C         138.5581  142.7137  159.6126 C.3     1  UNL1        0.0730
     22 N         138.6980  142.3053  161.0491 N.3     1  UNL1       -0.2720
     23 C         137.9709  141.0539  161.4437 C.3     1  UNL1        0.0768
     24 C         137.9127  140.3905  162.7878 C.3     1  UNL1        0.0434
     25 C         138.5671  140.8145  164.0692 C.ar    1  UNL1       -0.0230
     26 C         138.2510  139.8647  165.1864 C.ar    1  UNL1        0.0178
     27 C         138.8093  140.1071  166.5573 C.ar    1  UNL1        0.1187
     28 N         138.6721  139.3503  167.8451 N.ar    1  UNL1       -0.2043
     29 C         139.4615  140.0747  168.8948 C.ar    1  UNL1        0.2851
     30 O         140.0867  141.2792  168.2558 O.2     1  UNL1       -0.4312
     31 C         139.6835  141.2993  166.8112 C.ar    1  UNL1        0.1645
     32 C         139.9996  142.2490  165.6940 C.ar    1  UNL1        0.0346
     33 C         139.4414  142.0066  164.3230 C.ar    1  UNL1       -0.0216
     34 C         139.8771  143.0693  163.3581 C.3     1  UNL1        0.0434
     35 C         139.5463  143.2022  161.9011 C.3     1  UNL1        0.0768
@<TRIPOS>BOND
     1     8     9    1
     2     9    10   ar
     3    10    11   ar
     4    11    12   ar
     5    12    13   ar
     6    13     2    1
     7     2     3   ar
     8     3     4   ar
     9     4     5   ar
    10     5     1    1
    11     1    19    1
    12    19    20    1
    13    20    21    1
    14    21    22    1
    15    22    23    1
    16    23    24    1
    17    24    25    1
    18    25    26   ar
    19    26    27   ar
    20    27    28   ar
    21    28    29   ar
    22    29    30   ar
    23    30    31   ar
    24    31    32   ar
    25    32    33   ar
    26    33    34    1
    27    34    35    1
    28     5     6   ar
    29     6     7    1
    30    13    14   ar
    31    14    15   ar
    32    15    16   ar
    33    16    17   ar
    34    17    18   ar
    35    18     9   ar
    36    17    12   ar
    37     6     2   ar
    38    35    22    1
    39    33    25   ar
    40    31    27   ar
@<TRIPOS>MOLECULE
*****
 35 40 0 0 0
SMALL
GASTEIGER

@<TRIPOS>ATOM
      1 S         142.0679  140.3320  170.1851 S.3     1  UNL1       -0.0756
      2 C         143.3062  140.3408  166.5065 C.ar    1  UNL1        0.1669
      3 N         143.5214  138.9044  166.8813 N.ar    1  UNL1       -0.1282
      4 N         143.0837  138.7263  168.3050 N.ar    1  UNL1       -0.1221
      5 C         142.5980  140.0526  168.8100 C.ar    1  UNL1        0.1932
      6 N         142.7355  141.0504  167.6985 N.ar    1  UNL1       -0.2884
      7 C         142.3670  142.5028  167.7668 C.3     1  UNL1        0.1340
      8 C         142.7993  137.7897  160.1437 C.3     1  UNL1        0.0521
      9 C         143.0016  138.5820  161.4011 C.ar    1  UNL1        0.0593
     10 C         142.6992  137.9638  162.7340 C.ar    1  UNL1        0.0147
     11 C         142.9015  138.7561  163.9915 C.ar    1  UNL1        0.0028
     12 C         143.4062  140.1667  163.9162 C.ar    1  UNL1        0.0206
     13 C         143.6086  140.9590  165.1737 C.ar    1  UNL1        0.0374
     14 C         144.1132  142.3696  165.0983 C.ar    1  UNL1        0.0031
     15 C         144.4156  142.9877  163.7655 C.ar    1  UNL1        0.0016
     16 C         144.2133  142.1954  162.5080 C.ar    1  UNL1        0.0191
     17 C         143.7086  140.7849  162.5833 C.ar    1  UNL1        0.0810
     18 N         143.5063  139.9926  161.3258 N.ar    1  UNL1       -0.2497
     19 C         140.5883  140.3377  170.4316 C.3     1  UNL1        0.0666
     20 C         139.6484  140.7668  169.3443 C.3     1  UNL1        0.0294
     21 C         138.9035  139.7372  168.5473 C.3     1  UNL1        0.0730
     22 N         139.0418  139.7003  167.0541 N.3     1  UNL1       -0.2720
     23 C         139.5678  140.9528  166.4181 C.3     1  UNL1        0.0768
     24 C         139.8177  141.2301  164.9653 C.3     1  UNL1        0.0434
     25 C         139.6034  140.3233  163.7897 C.ar    1  UNL1       -0.0230
     26 C         139.9818  140.9954  162.5031 C.ar    1  UNL1        0.0178
     27 C         139.8430  140.2594  161.2035 C.ar    1  UNL1        0.1187
     28 N         140.1344  140.6594  159.7875 N.ar    1  UNL1       -0.2043
     29 C         139.7972  139.4986  158.8993 C.ar    1  UNL1        0.2851
     30 O         139.2975  138.3812  159.7663 O.2     1  UNL1       -0.4312
     31 C         139.3257  138.8514  161.1904 C.ar    1  UNL1        0.1645
     32 C         138.9473  138.1795  162.4770 C.ar    1  UNL1        0.0346
     33 C         139.0862  138.9154  163.7766 C.ar    1  UNL1       -0.0216
     34 C         138.6555  138.0665  164.9359 C.3     1  UNL1        0.0434
     35 C         138.6358  138.4157  166.3945 C.3     1  UNL1        0.0768
@<TRIPOS>BOND
     1     8     9    1
     2     9    10   ar
     3    10    11   ar
     4    11    12   ar
     5    12    13   ar
     6    13     2    1
     7     2     3   ar
     8     3     4   ar
     9     4     5   ar
    10     5     1    1
    11     1    19    1
    12    19    20    1
    13    20    21    1
    14    21    22    1
    15    22    23    1
    16    23    24    1
    17    24    25    1
    18    25    26   ar
    19    26    27   ar
    20    27    28   ar
    21    28    29   ar
    22    29    30   ar
    23    30    31   ar
    24    31    32   ar
    25    32    33   ar
    26    33    34    1
    27    34    35    1
    28     5     6   ar
    29     6     7    1
    30    13    14   ar
    31    14    15   ar
    32    15    16   ar
    33    16    17   ar
    34    17    18   ar
    35    18     9   ar
    36    17    12   ar
    37     6     2   ar
    38    35    22    1
    39    33    25   ar
    40    31    27   ar
@<TRIPOS>MOLECULE
*****
 35 40 0 0 0
SMALL
GASTEIGER

@<TRIPOS>ATOM
      1 S         140.9573  144.3034  157.9908 S.3     1  UNL1       -0.0756
      2 C         141.8141  144.3819  161.7757 C.ar    1  UNL1        0.1669
      3 N         140.5323  145.1607  161.7525 N.ar    1  UNL1       -0.1282
      4 N         140.0554  145.2260  160.3319 N.ar    1  UNL1       -0.1221
      5 C         141.0423  144.4877  159.4771 C.ar    1  UNL1        0.1932
      6 N         142.1293  143.9660  160.3694 N.ar    1  UNL1       -0.2884
      7 C         143.3221  143.1684  159.9323 C.3     1  UNL1        0.1340
      8 C         142.7676  138.4905  165.1864 C.3     1  UNL1        0.0521
      9 C         142.7348  139.8861  164.6378 C.ar    1  UNL1        0.0593
     10 C         141.9126  140.1949  163.4218 C.ar    1  UNL1        0.0147
     11 C         141.8797  141.5905  162.8730 C.ar    1  UNL1        0.0028
     12 C         142.6692  142.6775  163.5404 C.ar    1  UNL1        0.0206
     13 C         142.6364  144.0732  162.9917 C.ar    1  UNL1        0.0374
     14 C         143.4258  145.1601  163.6590 C.ar    1  UNL1        0.0031
     15 C         144.2481  144.8514  164.8750 C.ar    1  UNL1        0.0016
     16 C         144.2809  143.4557  165.4237 C.ar    1  UNL1        0.0191
     17 C         143.4915  142.3688  164.7564 C.ar    1  UNL1        0.0810
     18 N         143.5243  140.9731  165.3050 N.ar    1  UNL1       -0.2497
     19 C         139.6225  144.3296  157.3070 C.3     1  UNL1        0.0666
     20 C         138.6783  143.1742  157.4605 C.3     1  UNL1        0.0294
     21 C         139.2130  141.8003  157.7370 C.3     1  UNL1        0.0730
     22 N         139.0446  141.1895  159.0967 N.3     1  UNL1       -0.2720
     23 C         138.4842  142.0960  160.1524 C.3     1  UNL1        0.0768
     24 C         138.1997  141.7898  161.5930 C.3     1  UNL1        0.0434
     25 C         138.4053  140.5017  162.3337 C.ar    1  UNL1       -0.0230
     26 C         137.9889  140.6229  163.7697 C.ar    1  UNL1        0.0178
     27 C         138.1135  139.4440  164.6887 C.ar    1  UNL1        0.1187
     28 N         137.7862  139.2649  166.1416 N.ar    1  UNL1       -0.2043
     29 C         138.1248  137.8542  166.5225 C.ar    1  UNL1        0.2851
     30 O         138.6615  137.1613  165.3051 O.2     1  UNL1       -0.4312
     31 C         138.6545  138.1439  164.1717 C.ar    1  UNL1        0.1645
     32 C         139.0708  138.0228  162.7358 C.ar    1  UNL1        0.0346
     33 C         138.9461  139.2017  161.8168 C.ar    1  UNL1       -0.0216
     34 C         139.4151  138.8686  160.4314 C.3     1  UNL1        0.0434
     35 C         139.4589  139.7532  159.2209 C.3     1  UNL1        0.0768
@<TRIPOS>BOND
     1     8     9    1
     2     9    10   ar
     3    10    11   ar
     4    11    12   ar
     5    12    13   ar
     6    13     2    1
     7     2     3   ar
     8     3     4   ar
     9     4     5   ar
    10     5     1    1
    11     1    19    1
    12    19    20    1
    13    20    21    1
    14    21    22    1
    15    22    23    1
    16    23    24    1
    17    24    25    1
    18    25    26   ar
    19    26    27   ar
    20    27    28   ar
    21    28    29   ar
    22    29    30   ar
    23    30    31   ar
    24    31    32   ar
    25    32    33   ar
    26    33    34    1
    27    34    35    1
    28     5     6   ar
    29     6     7    1
    30    13    14   ar
    31    14    15   ar
    32    15    16   ar
    33    16    17   ar
    34    17    18   ar
    35    18     9   ar
    36    17    12   ar
    37     6     2   ar
    38    35    22    1
    39    33    25   ar
    40    31    27   ar
