@<TRIPOS>MOLECULE
*****
 106 108 0 0 0
SMALL
GASTEIGER

@<TRIPOS>ATOM
      1 C         142.6151  140.7227  163.9327 C.2     1  PHE1        0.2406
      2 O         141.5758  139.7187  163.5306 O.2     1  PHE1       -0.2733
      3 N         142.3197  141.7140  165.0191 N.am    1  PHE1       -0.2970
      4 H         143.0018  142.3730  165.2830 H       1  PHE1        0.1499
      5 CA        140.9849  141.7012  165.7034 C.3     1  PHE1        0.1485
      6 C         139.7263  141.6242  164.8909 C.2     1  PHE1        0.2407
      7 O         138.4856  141.0261  165.4849 O.2     1  PHE1       -0.2733
      8 N         139.7084  142.1454  163.4845 N.am    2  UNK2       -0.2950
      9 H         140.5228  142.5380  163.0946 H       2  UNK2        0.1499
     10 C         138.4498  142.0685  162.6720 C.3     2  UNK2        0.1782
     11 C         138.4291  141.2839  161.3938 C.2     2  UNK2        0.2433
     12 O         137.4061  140.1870  161.3960 O.2     2  UNK2       -0.2732
     13 N         139.3737  141.6353  160.2827 N.am    2  UNK2       -0.2941
     14 H         140.0072  142.3809  160.3925 H       2  UNK2        0.1500
     15 C         139.3529  140.8507  159.0044 C.3     2  UNK2        0.1890
     16 C         140.4593  139.8527  159.1778 C.2     2  UNK2        0.2443
     17 O         141.0095  140.1597  160.5390 O.2     2  UNK2       -0.2732
     18 N         141.3023  138.7079  158.6997 N.am    2  UNK2       -0.2969
     19 C         141.6887  137.6784  157.6794 C.3     2  UNK2        0.1486
     20 C         142.8274  136.9446  158.3236 C.3     2  UNK2        0.0312
     21 C         141.5302  137.0001  156.3510 C.2     2  UNK2        0.2406
     22 O         142.5930  135.9417  156.3593 O.2     2  UNK2       -0.2733
     23 N         140.8630  136.8284  155.0186 N.am    2  UNK2       -0.2969
     24 C         139.8399  137.2026  153.9875 C.3     2  UNK2        0.1519
     25 C         138.6954  138.0371  153.4939 C.2     2  UNK2        0.2408
     26 O         138.4013  137.4750  152.1345 O.2     2  UNK2       -0.2733
     27 N         137.6915  139.1406  153.6508 N.am    2  UNK2       -0.2954
     28 C         137.0584  140.2603  154.4224 C.3     2  UNK2        0.1714
     29 C         136.9410  141.1398  155.6318 C.2     2  UNK2        0.3349
     30 O         135.8073  142.0628  155.2959 O.2     2  UNK2       -0.2483
     31 O         137.3662  141.5775  157.0021 O.3     2  UNK2       -0.4489
     32 C         138.2367  141.4732  158.2192 C.3     2  UNK2        0.1956
     33 C         137.6022  142.5932  158.9892 C.3     2  UNK2        0.0497
     34 H         141.9282  138.5496  159.4429 H       2  UNK2        0.1499
     35 H         141.3510  136.0797  154.6055 H       2  UNK2        0.1499
     36 H         137.1832  139.1184  152.8080 H       2  UNK2        0.1499
     37 C         135.9809  140.7623  153.5075 C.3     2  UNK2        0.0289
     38 C         134.5389  140.6060  153.8903 C.3     2  UNK2        0.0023
     39 C         136.3452  141.4205  152.2099 C.3     2  UNK2        0.0022
     40 C         137.1444  142.6899  152.2112 C.3     2  UNK2        0.0001
     41 C         140.0937  136.2411  152.8645 C.3     2  UNK2        0.0693
     42 C         140.8342  134.9629  153.1245 C.3     2  UNK2        0.1690
     43 C         141.7096  134.2365  152.1467 C.3     2  UNK2        0.2006
     44 N         142.2457  133.0113  152.8259 N.pl3   2  UNK2       -0.2224
     45 C         141.7017  132.9803  154.2234 C.cat   2  UNK2        0.3634
     46 N         141.9810  131.9280  155.2552 N.2     2  UNK2       -0.1334
     47 N         140.8293  134.1865  154.4079 N.pl3   2  UNK2       -0.2251
     48 H         142.8488  132.3444  152.4248 H       2  UNK2        0.2453
     49 H         142.5702  131.1698  155.0381 H       2  UNK2        0.3058
     50 H         140.3395  134.4265  155.2275 H       2  UNK2        0.2452
     51 C         137.2120  142.7761  163.1380 C.3     2  UNK2        0.1660
     52 O         137.1626  144.2752  163.1447 O.3     2  UNK2       -0.3798
     53 H         137.7984  144.6167  163.7928 H       2  UNK2        0.2105
     54 CB        140.9087  141.7653  167.2000 C.3     1  PHE1        0.0269
     55 CG2       141.2057  140.9867  167.9081 C.3     1  PHE1        0.0022
     56 CG1       140.3791  142.9975  167.8718 C.3     1  PHE1        0.0021
     57 CD1       140.4337  143.1193  169.3659 C.3     1  PHE1        0.0001
     58 CA        143.9499  140.7355  163.2485 C.3     1  PHE1        0.1485
     59 C         144.2541  142.5355  161.3999 C.2     1  PHE1        0.2406
     60 O         144.3673  143.5978  162.4529 O.2     1  PHE1       -0.2733
     61 N         144.0455  141.1044  161.7976 N.am    1  PHE1       -0.2970
     62 H         143.9712  140.4072  161.1065 H       1  PHE1        0.1499
     63 CA        144.3497  142.9044  159.9491 C.3     1  PHE1        0.1491
     64 C         141.9400  143.8747  159.9869 C.2     1  PHE1        0.2432
     65 O         141.6846  143.1894  161.2965 O.2     1  PHE1       -0.2732
     66 N         143.2726  143.7322  159.3132 N.am    1  PHE1       -0.2969
     67 H         143.4403  144.1820  158.4537 H       1  PHE1        0.1499
     68 CA        140.8628  144.7026  159.3510 C.3     1  PHE1        0.1782
     69 C         141.4415  145.3636  156.9059 C.2     1  PHE1        0.2407
     70 O         142.5434  146.2499  157.4063 O.2     1  PHE1       -0.2733
     71 N         140.6013  144.5899  157.8783 N.am    1  PHE1       -0.2950
     72 H         139.8781  144.0082  157.5499 H       1  PHE1        0.1499
     73 CA        141.1799  145.2508  155.4333 C.3     1  PHE1        0.1485
     74 N         141.9094  144.2243  154.6183 N.am    1  PHE1       -0.2972
     75 C         141.7351  142.7652  154.9197 C.2     1  PHE1        0.2374
     76 O         140.8315  142.3327  156.0362 O.2     1  PHE1       -0.2736
     77 H         142.5025  144.5082  153.8856 H       1  PHE1        0.1499
     78 CA        142.4646  141.7387  154.1048 C.3     1  PHE1        0.1359
     79 N         142.2709  140.2788  154.3899 N.3     1  PHE1       -0.2899
     80 C         143.1903  139.2660  153.7743 C.3     0  ACE0        0.0862
     81 H         141.3264  140.0422  154.0860 H       1  PHE1        0.1237
     82 CB        143.3877  142.1721  153.0047 C.3     1  PHE1        0.0514
     83 CG        144.8587  142.3021  153.2677 C.ar    1  PHE1       -0.0203
     84 CD1       145.8259  141.3742  152.5940 C.ar    1  PHE1       -0.0042
     85 CE1       147.2969  141.5042  152.8570 C.ar    1  PHE1       -0.0003
     86 CZ        147.8008  142.5620  153.7935 C.ar    1  PHE1       -0.0000
     87 CE2       146.8336  143.4899  154.4671 C.ar    1  PHE1       -0.0003
     88 CD2       145.3626  143.3599  154.2042 C.ar    1  PHE1       -0.0042
     89 CB        140.1888  146.1647  154.7755 C.3     1  PHE1        0.0269
     90 CG2       140.6393  147.0918  154.4105 C.3     1  PHE1        0.0022
     91 CD1       138.2481  144.5697  155.4383 C.3     1  PHE1        0.0001
     92 CG1       138.7476  145.7610  154.6760 C.3     1  PHE1        0.0021
     93 CB        140.0473  145.6432  160.1878 C.3     1  PHE1        0.1660
     94 O         140.5803  146.1324  161.5018 O.3     1  PHE1       -0.3798
     95 H         140.6528  145.3875  162.1188 H       1  PHE1        0.2105
     96 CB        145.5225  142.4454  159.1342 C.3     1  PHE1        0.0385
     97 CG        145.3876  142.2869  157.6487 C.3     1  PHE1        0.0870
     98 CD        144.8670  141.0022  157.0756 C.2     1  PHE1        0.2194
     99 NE2       145.7630  140.1356  156.2412 N.am    1  PHE1       -0.3288
    100 OE1       143.4504  140.5842  157.3368 O.2     1  PHE1       -0.2753
    101 HE21      146.6928  140.4100  156.0698 H       1  PHE1        0.1449
    102 HE22      145.4213  139.2924  155.8651 H       1  PHE1        0.1449
    103 CB        145.1891  140.3794  164.0150 C.3     1  PHE1        0.0269
    104 CG2       146.3262  141.3543  164.0974 C.3     1  PHE1        0.0022
    105 CG1       145.2913  139.0485  164.6992 C.3     1  PHE1        0.0021
    106 CD1       144.2362  138.6252  165.6777 C.3     1  PHE1        0.0001
@<TRIPOS>BOND
     1    91    92    1
     2    92    89    1
     3    89    90    1
     4    89    73    1
     5    73    74    1
     6    74    75   am
     7    75    76    2
     8    75    78    1
     9    78    82    1
    10    82    83    1
    11    83    84   ar
    12    84    85   ar
    13    85    86   ar
    14    86    87   ar
    15    87    88   ar
    16    78    79    1
    17    79    80    1
    18    73    69    1
    19    69    70    2
    20    69    71   am
    21    71    68    1
    22    68    93    1
    23    93    94    1
    24    68    64    1
    25    64    65    2
    26    64    66   am
    27    66    63    1
    28    63    96    1
    29    96    97    1
    30    97    98    1
    31    98    99   am
    32    98   100    2
    33    63    59    1
    34    59    60    2
    35    59    61   am
    36    58    61    1
    37    58     1    1
    38     1     2    2
    39     1     3   am
    40     5     3    1
    41     5     6    1
    42     6     7    2
    43     6     8   am
    44     8    10    1
    45    10    51    1
    46    51    52    1
    47    10    11    1
    48    11    12    2
    49    11    13   am
    50    15    13    1
    51    15    16    1
    52    16    17    2
    53    16    18   am
    54    18    19    1
    55    19    20    1
    56    19    21    1
    57    21    22    2
    58    21    23   am
    59    23    24    1
    60    24    41    1
    61    42    41    1
    62    42    43    1
    63    43    44    1
    64    44    45    1
    65    45    46    2
    66    45    47    1
    67    24    25    1
    68    25    26    2
    69    25    27   am
    70    28    27    1
    71    28    37    1
    72    37    38    1
    73    37    39    1
    74    39    40    1
    75    28    29    1
    76    29    30    2
    77    29    31    1
    78    31    32    1
    79    32    33    1
    80     5    54    1
    81    54    55    1
    82    54    56    1
    83    56    57    1
    84    58   103    1
    85   103   104    1
    86   103   105    1
    87   105   106    1
    88    88    83   ar
    89    32    15    1
    90    47    42    1
    91    74    77    1
    92    79    81    1
    93    71    72    1
    94    94    95    1
    95    66    67    1
    96    99   101    1
    97    99   102    1
    98    61    62    1
    99     3     4    1
   100     8     9    1
   101    52    53    1
   102    13    14    1
   103    18    34    1
   104    23    35    1
   105    44    48    1
   106    46    49    1
   107    47    50    1
   108    27    36    1
@<TRIPOS>MOLECULE
*****
 106 108 0 0 0
SMALL
GASTEIGER

@<TRIPOS>ATOM
      1 C         144.6840  141.9505  159.4600 C.2     1  PHE1        0.2406
      2 O         144.5869  140.4536  159.4590 O.2     1  PHE1       -0.2733
      3 N         144.5325  142.7110  160.7440 N.am    1  PHE1       -0.2970
      4 H         144.5962  143.6934  160.7446 H       1  PHE1        0.1499
      5 CA        144.2839  141.9747  162.0270 C.3     1  PHE1        0.1485
      6 C         143.2563  140.8831  162.0783 C.2     1  PHE1        0.2407
      7 O         141.8093  141.2039  161.8477 O.2     1  PHE1       -0.2733
      8 N         143.6758  139.4708  162.3602 N.am    2  UNK2       -0.2950
      9 H         144.6255  139.2603  162.5115 H       2  UNK2        0.1499
     10 C         142.6482  138.3793  162.4116 C.3     2  UNK2        0.1782
     11 C         142.1729  137.7365  161.1424 C.2     2  UNK2        0.2433
     12 O         140.7664  137.2237  161.2363 O.2     2  UNK2       -0.2732
     13 N         143.0836  137.6613  159.9529 N.am    2  UNK2       -0.2941
     14 H         143.9934  138.0339  160.0052 H       2  UNK2        0.1500
     15 C         142.6082  137.0185  158.6837 C.3     2  UNK2        0.1890
     16 C         143.2281  135.6531  158.7189 C.2     2  UNK2        0.2443
     17 O         144.0002  135.6423  160.0048 O.2     2  UNK2       -0.2732
     18 N         143.4784  134.2927  158.1385 N.am    2  UNK2       -0.2969
     19 C         143.3018  133.2492  157.0755 C.3     2  UNK2        0.1486
     20 C         144.1092  132.0879  157.5750 C.3     2  UNK2        0.0312
     21 C         142.7389  132.7615  155.7736 C.2     2  UNK2        0.2406
     22 O         143.2767  131.3668  155.6498 O.2     2  UNK2       -0.2733
     23 N         141.9184  132.9413  154.5308 N.am    2  UNK2       -0.2969
     24 C         141.0284  133.7476  153.6320 C.3     2  UNK2        0.1519
     25 C         140.2728  134.9955  153.2830 C.2     2  UNK2        0.2408
     26 O         139.6304  134.6700  151.9671 O.2     2  UNK2       -0.2733
     27 N         139.8247  136.3992  153.5638 N.am    2  UNK2       -0.2954
     28 C         139.7867  137.6371  154.4100 C.3     2  UNK2        0.1714
     29 C         140.1675  138.4257  155.6278 C.2     2  UNK2        0.3349
     30 O         139.4748  139.7420  155.4344 O.2     2  UNK2       -0.2483
     31 O         140.8800  138.5841  156.9383 O.3     2  UNK2       -0.4489
     32 C         141.7608  138.0764  158.0412 C.3     2  UNK2        0.1956
     33 C         141.7216  139.3152  158.8860 C.3     2  UNK2        0.0497
     34 H         144.0638  133.8583  158.8002 H       2  UNK2        0.1499
     35 H         142.0137  132.0824  154.0592 H       2  UNK2        0.1499
     36 H         139.2623  136.6266  152.7884 H       2  UNK2        0.1499
     37 C         138.9116  138.5760  153.6335 C.3     2  UNK2        0.0289
     38 C         137.5047  138.8357  154.0844 C.3     2  UNK2        0.0023
     39 C         139.4433  139.2550  152.4064 C.3     2  UNK2        0.0022
     40 C         139.6702  140.7378  152.4084 C.3     2  UNK2        0.0001
     41 C         140.7477  132.8248  152.4832 C.3     2  UNK2        0.0693
     42 C         140.8415  131.3400  152.6737 C.3     2  UNK2        0.1690
     43 C         142.0522  130.4928  152.4162 C.3     2  UNK2        0.2006
     44 N         141.7001  129.0708  152.7385 N.pl3   2  UNK2       -0.2224
     45 C         140.2717  129.0391  153.1953 C.cat   2  UNK2        0.3634
     46 N         139.5080  127.8192  153.6179 N.2     2  UNK2       -0.1334
     47 N         139.7410  130.4415  153.1552 N.pl3   2  UNK2       -0.2251
     48 H         142.3010  128.2946  152.6635 H       2  UNK2        0.2453
     49 H         139.9455  126.9373  153.6102 H       2  UNK2        0.3058
     50 H         138.8304  130.7229  153.4016 H       2  UNK2        0.2452
     51 C         142.0960  137.9306  163.7321 C.3     2  UNK2        0.1660
     52 O         141.2864  136.6709  163.8176 O.3     2  UNK2       -0.3798
     53 H         140.4582  136.7847  163.3258 H       2  UNK2        0.2105
     54 CB        145.0629  142.3298  163.2585 C.3     1  PHE1        0.0269
     55 CG2       145.9944  141.8720  163.6030 C.3     1  PHE1        0.0022
     56 CG1       144.5754  143.4203  164.1658 C.3     1  PHE1        0.0021
     57 CD1       143.7528  144.5455  163.6114 C.3     1  PHE1        0.0001
     58 CA        144.9325  142.6868  158.1770 C.3     1  PHE1        0.1485
     59 C         142.8577  142.6161  156.6150 C.2     1  PHE1        0.2406
     60 O         143.0422  141.1382  156.4368 O.2     1  PHE1       -0.2733
     61 N         143.8029  143.3904  157.4851 N.am    1  PHE1       -0.2970
     62 H         143.6818  144.3604  157.6020 H       1  PHE1        0.1499
     63 CA        141.7280  143.3198  155.9231 C.3     1  PHE1        0.1491
     64 C         140.1449  142.9995  157.9580 C.2     1  PHE1        0.2432
     65 O         141.3336  142.8111  158.8532 O.2     1  PHE1       -0.2732
     66 N         140.3421  143.2538  156.4929 N.am    1  PHE1       -0.2969
     67 H         139.5619  143.3774  155.9053 H       1  PHE1        0.1499
     68 CA        138.7589  142.9335  158.5278 C.3     1  PHE1        0.1782
     69 C         138.7331  142.2952  161.0462 C.2     1  PHE1        0.2407
     70 O         139.1884  140.9087  160.6994 O.2     1  PHE1       -0.2733
     71 N         138.5183  143.3076  159.9603 N.am    1  PHE1       -0.2950
     72 H         138.2195  144.2177  160.1879 H       1  PHE1        0.1499
     73 CA        138.4925  142.6694  162.4786 C.3     1  PHE1        0.1485
     74 N         138.3202  141.5986  163.5148 N.am    1  PHE1       -0.2972
     75 C         139.3797  141.3836  164.5546 C.2     1  PHE1        0.2374
     76 O         140.6116  142.2394  164.5582 O.2     1  PHE1       -0.2736
     77 H         137.5116  141.0369  163.5124 H       1  PHE1        0.1499
     78 CA        139.2074  140.3128  165.5907 C.3     1  PHE1        0.1359
     79 N         137.9026  139.5815  165.7037 N.3     1  PHE1       -0.2899
     80 C         137.7294  138.5124  166.7415 C.3     0  ACE0        0.0862
     81 H         137.7310  139.1437  164.7986 H       1  PHE1        0.1237
     82 CB        140.3399  139.9732  166.5139 C.3     1  PHE1        0.0514
     83 CG        140.5957  140.8155  167.7285 C.ar    1  PHE1       -0.0203
     84 CD1       139.6433  140.7706  168.8865 C.ar    1  PHE1       -0.0042
     85 CE1       139.8991  141.6128  170.1010 C.ar    1  PHE1       -0.0003
     86 CZ        141.1074  142.4999  170.1575 C.ar    1  PHE1       -0.0000
     87 CE2       142.0598  142.5448  168.9995 C.ar    1  PHE1       -0.0003
     88 CD2       141.8040  141.7026  167.7850 C.ar    1  PHE1       -0.0042
     89 CB        138.4243  144.1145  162.8749 C.3     1  PHE1        0.0269
     90 CG2       137.4372  144.4111  163.2405 C.3     1  PHE1        0.0022
     91 CD1       139.6555  146.1076  161.7518 C.3     1  PHE1        0.0001
     92 CG1       139.6387  144.9854  162.7471 C.3     1  PHE1        0.0021
     93 CB        137.6134  142.4933  157.6651 C.3     1  PHE1        0.1660
     94 O         137.1487  143.3627  156.5345 O.3     1  PHE1       -0.3798
     95 H         136.7771  144.1849  156.8905 H       1  PHE1        0.2105
     96 CB        141.9843  144.0894  154.6614 C.3     1  PHE1        0.0385
     97 CG        141.6722  145.5553  154.6004 C.3     1  PHE1        0.0870
     98 CD        140.2790  146.0377  154.8764 C.2     1  PHE1        0.2194
     99 NE2       139.1378  145.5589  154.0287 N.am    1  PHE1       -0.3288
    100 OE1       140.0269  146.9988  156.0000 O.2     1  PHE1       -0.2753
    101 HE21      139.3033  144.9281  153.2912 H       1  PHE1        0.1449
    102 HE22      138.2234  145.8755  154.2098 H       1  PHE1        0.1449
    103 CB        146.3108  142.7195  157.5859 C.3     1  PHE1        0.0269
    104 CG2       147.4450  143.3223  158.3606 C.3     1  PHE1        0.0022
    105 CG1       146.5549  142.1493  156.2201 C.3     1  PHE1        0.0021
    106 CD1       147.9261  142.2118  155.6153 C.3     1  PHE1        0.0001
@<TRIPOS>BOND
     1    91    92    1
     2    92    89    1
     3    89    90    1
     4    89    73    1
     5    73    74    1
     6    74    75   am
     7    75    76    2
     8    75    78    1
     9    78    82    1
    10    82    83    1
    11    83    84   ar
    12    84    85   ar
    13    85    86   ar
    14    86    87   ar
    15    87    88   ar
    16    78    79    1
    17    79    80    1
    18    73    69    1
    19    69    70    2
    20    69    71   am
    21    71    68    1
    22    68    93    1
    23    93    94    1
    24    68    64    1
    25    64    65    2
    26    64    66   am
    27    66    63    1
    28    63    96    1
    29    96    97    1
    30    97    98    1
    31    98    99   am
    32    98   100    2
    33    63    59    1
    34    59    60    2
    35    59    61   am
    36    58    61    1
    37    58     1    1
    38     1     2    2
    39     1     3   am
    40     5     3    1
    41     5     6    1
    42     6     7    2
    43     6     8   am
    44     8    10    1
    45    10    51    1
    46    51    52    1
    47    10    11    1
    48    11    12    2
    49    11    13   am
    50    15    13    1
    51    15    16    1
    52    16    17    2
    53    16    18   am
    54    18    19    1
    55    19    20    1
    56    19    21    1
    57    21    22    2
    58    21    23   am
    59    23    24    1
    60    24    41    1
    61    42    41    1
    62    42    43    1
    63    43    44    1
    64    44    45    1
    65    45    46    2
    66    45    47    1
    67    24    25    1
    68    25    26    2
    69    25    27   am
    70    28    27    1
    71    28    37    1
    72    37    38    1
    73    37    39    1
    74    39    40    1
    75    28    29    1
    76    29    30    2
    77    29    31    1
    78    31    32    1
    79    32    33    1
    80     5    54    1
    81    54    55    1
    82    54    56    1
    83    56    57    1
    84    58   103    1
    85   103   104    1
    86   103   105    1
    87   105   106    1
    88    88    83   ar
    89    32    15    1
    90    47    42    1
    91    74    77    1
    92    79    81    1
    93    71    72    1
    94    94    95    1
    95    66    67    1
    96    99   101    1
    97    99   102    1
    98    61    62    1
    99     3     4    1
   100     8     9    1
   101    52    53    1
   102    13    14    1
   103    18    34    1
   104    23    35    1
   105    44    48    1
   106    46    49    1
   107    47    50    1
   108    27    36    1
@<TRIPOS>MOLECULE
*****
 106 108 0 0 0
SMALL
GASTEIGER

@<TRIPOS>ATOM
      1 C         144.5535  142.3301  159.5928 C.2     1  PHE1        0.2406
      2 O         144.7221  140.8662  159.8729 O.2     1  PHE1       -0.2733
      3 N         144.0079  143.2388  160.6542 N.am    1  PHE1       -0.2970
      4 H         143.8973  144.1997  160.4704 H       1  PHE1        0.1499
      5 CA        143.6310  142.6836  161.9957 C.3     1  PHE1        0.1485
      6 C         142.8997  141.3772  162.0881 C.2     1  PHE1        0.2407
      7 O         141.4082  141.3398  161.9323 O.2     1  PHE1       -0.2733
      8 N         143.6598  140.1081  162.3363 N.am    2  UNK2       -0.2950
      9 H         144.6387  140.1325  162.4386 H       2  UNK2        0.1499
     10 C         142.9285  138.8016  162.4287 C.3     2  UNK2        0.1782
     11 C         142.4516  138.1193  161.1810 C.2     2  UNK2        0.2433
     12 O         141.2886  137.2032  161.4221 O.2     2  UNK2       -0.2732
     13 N         143.1320  138.3892  159.8717 N.am    2  UNK2       -0.2941
     14 H         143.8916  139.0142  159.8313 H       2  UNK2        0.1500
     15 C         142.6550  137.7068  158.6239 C.3     2  UNK2        0.1890
     16 C         143.2805  136.3455  158.6978 C.2     2  UNK2        0.2443
     17 O         144.0568  136.3763  159.9809 O.2     2  UNK2       -0.2732
     18 N         143.5344  134.9693  158.1575 N.am    2  UNK2       -0.2969
     19 C         143.3585  133.8938  157.1269 C.3     2  UNK2        0.1486
     20 C         144.1723  132.7512  157.6581 C.3     2  UNK2        0.0312
     21 C         142.7933  133.3651  155.8420 C.2     2  UNK2        0.2406
     22 O         143.3364  131.9695  155.7582 O.2     2  UNK2       -0.2733
     23 N         141.9680  133.5044  154.5972 N.am    2  UNK2       -0.2969
     24 C         141.0718  134.2799  153.6777 C.3     2  UNK2        0.1519
     25 C         140.3100  135.5138  153.2941 C.2     2  UNK2        0.2408
     26 O         139.6645  135.1466  151.9908 O.2     2  UNK2       -0.2733
     27 N         139.8571  136.9236  153.5343 N.am    2  UNK2       -0.2954
     28 C         139.8169  138.1860  154.3432 C.3     2  UNK2        0.1714
     29 C         140.1986  139.0122  155.5356 C.2     2  UNK2        0.3349
     30 O         139.4998  140.3194  155.3053 O.2     2  UNK2       -0.2483
     31 O         140.9147  139.2126  156.8383 O.3     2  UNK2       -0.4489
     32 C         141.8012  138.7416  157.9529 C.3     2  UNK2        0.1956
     33 C         141.7597  140.0050  158.7604 C.3     2  UNK2        0.0497
     34 H         144.1237  134.5572  158.8299 H       2  UNK2        0.1499
     35 H         142.0652  132.6322  154.1512 H       2  UNK2        0.1499
     36 H         139.2912  137.1253  152.7544 H       2  UNK2        0.1499
     37 C         138.9355  139.0978  153.5421 C.3     2  UNK2        0.0289
     38 C         137.5518  139.4181  154.0247 C.3     2  UNK2        0.0023
     39 C         139.4376  139.6891  152.2583 C.3     2  UNK2        0.0022
     40 C         140.4843  140.7632  152.2862 C.3     2  UNK2        0.0001
     41 C         140.7910  133.3220  152.5580 C.3     2  UNK2        0.0693
     42 C         140.8958  131.8441  152.7914 C.3     2  UNK2        0.1690
     43 C         139.8858  130.9892  153.4979 C.3     2  UNK2        0.2006
     44 N         140.3947  129.5783  153.5024 N.pl3   2  UNK2       -0.2224
     45 C         141.7193  129.5610  152.7986 C.cat   2  UNK2        0.3634
     46 N         142.5826  128.3552  152.5738 N.2     2  UNK2       -0.1334
     47 N         142.0289  130.9614  152.3592 N.pl3   2  UNK2       -0.2251
     48 H         139.9394  128.8001  153.8978 H       2  UNK2        0.2453
     49 H         142.2919  127.4735  152.9016 H       2  UNK2        0.3058
     50 H         142.8345  131.2504  151.8726 H       2  UNK2        0.2452
     51 C         142.6742  138.1777  163.7689 C.3     2  UNK2        0.1660
     52 O         142.8466  138.9888  165.0188 O.3     2  UNK2       -0.3798
     53 H         143.7814  139.2250  165.1246 H       2  UNK2        0.2105
     54 CB        143.9853  143.4347  163.2448 C.3     1  PHE1        0.0269
     55 CG2       143.8680  144.5072  163.4235 C.3     1  PHE1        0.0022
     56 CG1       144.5681  142.7052  164.4188 C.3     1  PHE1        0.0021
     57 CD1       143.7196  142.4238  165.6234 C.3     1  PHE1        0.0001
     58 CA        144.9305  142.8854  158.2513 C.3     1  PHE1        0.1485
     59 C         143.0899  142.9550  156.4191 C.2     1  PHE1        0.2406
     60 O         143.2612  141.4823  156.1911 O.2     1  PHE1       -0.2733
     61 N         143.9245  143.6565  157.4492 N.am    1  PHE1       -0.2970
     62 H         143.8121  144.6231  157.5988 H       1  PHE1        0.1499
     63 CA        142.0840  143.7261  155.6169 C.3     1  PHE1        0.1491
     64 C         141.1271  145.5685  157.1789 C.2     1  PHE1        0.2432
     65 O         142.5082  146.1206  157.3737 O.2     1  PHE1       -0.2732
     66 N         140.9151  144.3712  156.3005 N.am    1  PHE1       -0.2969
     67 H         140.0087  144.0088  156.1727 H       1  PHE1        0.1499
     68 CA        139.9582  146.2136  157.8625 C.3     1  PHE1        0.1782
     69 C         140.3028  144.6617  159.9175 C.2     1  PHE1        0.2407
     70 O         141.4465  143.9891  159.2178 O.2     1  PHE1       -0.2733
     71 N         139.5586  145.7739  159.2399 N.am    1  PHE1       -0.2950
     72 H         138.8080  146.2154  159.6991 H       1  PHE1        0.1499
     73 CA        139.9032  144.2220  161.2948 C.3     1  PHE1        0.1485
     74 N         139.3277  142.8533  161.5077 N.am    1  PHE1       -0.2972
     75 C         138.4719  142.2262  160.4473 C.2     1  PHE1        0.2374
     76 O         138.1916  142.9678  159.1740 O.2     1  PHE1       -0.2736
     77 H         139.5116  142.3665  162.3435 H       1  PHE1        0.1499
     78 CA        137.8964  140.8574  160.6603 C.3     1  PHE1        0.1359
     79 N         138.0551  139.8044  159.6039 N.3     1  PHE1       -0.2899
     80 C         138.8604  138.5714  159.8891 C.3     0  ACE0        0.0862
     81 H         138.4863  140.2580  158.7985 H       1  PHE1        0.1237
     82 CB        137.1621  140.5418  161.9297 C.3     1  PHE1        0.0514
     83 CG        137.9221  140.1050  163.1469 C.ar    1  PHE1       -0.0203
     84 CD1       138.4774  138.7138  163.2253 C.ar    1  PHE1       -0.0042
     85 CE1       139.2373  138.2770  164.4425 C.ar    1  PHE1       -0.0003
     86 CZ        139.4420  139.2315  165.5814 C.ar    1  PHE1       -0.0000
     87 CE2       138.8866  140.6228  165.5030 C.ar    1  PHE1       -0.0003
     88 CD2       138.1267  141.0595  164.2858 C.ar    1  PHE1       -0.0042
     89 CB        140.0791  145.1512  162.4592 C.3     1  PHE1        0.0269
     90 CG2       140.6043  146.0731  162.1945 C.3     1  PHE1        0.0022
     91 CD1       140.4052  143.9587  164.7442 C.3     1  PHE1        0.0001
     92 CG1       139.5540  144.7676  163.8108 C.3     1  PHE1        0.0021
     93 CB        139.1887  147.2984  157.1688 C.3     1  PHE1        0.1660
     94 O         139.6787  147.8471  155.8615 O.3     1  PHE1       -0.3798
     95 H         140.5208  148.3082  155.9997 H       1  PHE1        0.2105
     96 CB        142.2470  143.8521  154.1311 C.3     1  PHE1        0.0385
     97 CG        143.1532  144.9034  153.5624 C.3     1  PHE1        0.0870
     98 CD        142.5826  146.0207  152.7402 C.2     1  PHE1        0.2194
     99 NE2       143.4969  146.9347  151.9794 N.am    1  PHE1       -0.3288
    100 OE1       141.0978  146.2241  152.6789 O.2     1  PHE1       -0.2753
    101 HE21      144.4715  146.8012  152.0197 H       1  PHE1        0.1449
    102 HE22      143.1224  147.6680  151.4398 H       1  PHE1        0.1449
    103 CB        146.3135  142.6695  157.7120 C.3     1  PHE1        0.0269
    104 CG2       147.4903  143.3081  158.3882 C.3     1  PHE1        0.0022
    105 CG1       146.5195  141.8151  156.4964 C.3     1  PHE1        0.0021
    106 CD1       147.7134  142.0387  155.6162 C.3     1  PHE1        0.0001
@<TRIPOS>BOND
     1    91    92    1
     2    92    89    1
     3    89    90    1
     4    89    73    1
     5    73    74    1
     6    74    75   am
     7    75    76    2
     8    75    78    1
     9    78    82    1
    10    82    83    1
    11    83    84   ar
    12    84    85   ar
    13    85    86   ar
    14    86    87   ar
    15    87    88   ar
    16    78    79    1
    17    79    80    1
    18    73    69    1
    19    69    70    2
    20    69    71   am
    21    71    68    1
    22    68    93    1
    23    93    94    1
    24    68    64    1
    25    64    65    2
    26    64    66   am
    27    66    63    1
    28    63    96    1
    29    96    97    1
    30    97    98    1
    31    98    99   am
    32    98   100    2
    33    63    59    1
    34    59    60    2
    35    59    61   am
    36    58    61    1
    37    58     1    1
    38     1     2    2
    39     1     3   am
    40     5     3    1
    41     5     6    1
    42     6     7    2
    43     6     8   am
    44     8    10    1
    45    10    51    1
    46    51    52    1
    47    10    11    1
    48    11    12    2
    49    11    13   am
    50    15    13    1
    51    15    16    1
    52    16    17    2
    53    16    18   am
    54    18    19    1
    55    19    20    1
    56    19    21    1
    57    21    22    2
    58    21    23   am
    59    23    24    1
    60    24    41    1
    61    42    41    1
    62    42    43    1
    63    43    44    1
    64    44    45    1
    65    45    46    2
    66    45    47    1
    67    24    25    1
    68    25    26    2
    69    25    27   am
    70    28    27    1
    71    28    37    1
    72    37    38    1
    73    37    39    1
    74    39    40    1
    75    28    29    1
    76    29    30    2
    77    29    31    1
    78    31    32    1
    79    32    33    1
    80     5    54    1
    81    54    55    1
    82    54    56    1
    83    56    57    1
    84    58   103    1
    85   103   104    1
    86   103   105    1
    87   105   106    1
    88    88    83   ar
    89    32    15    1
    90    47    42    1
    91    74    77    1
    92    79    81    1
    93    71    72    1
    94    94    95    1
    95    66    67    1
    96    99   101    1
    97    99   102    1
    98    61    62    1
    99     3     4    1
   100     8     9    1
   101    52    53    1
   102    13    14    1
   103    18    34    1
   104    23    35    1
   105    44    48    1
   106    46    49    1
   107    47    50    1
   108    27    36    1
@<TRIPOS>MOLECULE
*****
 106 108 0 0 0
SMALL
GASTEIGER

@<TRIPOS>ATOM
      1 C         142.6507  142.7770  154.9397 C.2     1  PHE1        0.2406
      2 O         142.3193  142.2951  156.3210 O.2     1  PHE1       -0.2733
      3 N         143.1790  141.8157  153.9166 N.am    1  PHE1       -0.2970
      4 H         143.3965  142.1320  153.0100 H       1  PHE1        0.1499
      5 CA        143.3760  140.3724  154.2748 C.3     1  PHE1        0.1485
      6 C         142.2140  139.4246  154.2356 C.2     1  PHE1        0.2407
      7 O         141.0547  139.6203  155.1672 O.2     1  PHE1       -0.2733
      8 N         142.2113  138.2811  153.2648 N.am    2  UNK2       -0.2950
      9 H         142.9722  138.1527  152.6534 H       2  UNK2        0.1499
     10 C         141.0494  137.3333  153.2256 C.3     2  UNK2        0.1782
     11 C         141.1546  135.9902  153.8850 C.2     2  UNK2        0.2433
     12 O         140.2343  135.8407  155.0601 O.2     2  UNK2       -0.2732
     13 N         142.1115  134.9657  153.3517 N.am    2  UNK2       -0.2941
     14 H         142.6706  135.1748  152.5688 H       2  UNK2        0.1500
     15 C         142.2167  133.6225  154.0112 C.3     2  UNK2        0.1890
     16 C         143.2651  133.8214  155.0654 C.2     2  UNK2        0.2443
     17 O         143.6617  135.2596  154.9105 O.2     2  UNK2       -0.2732
     18 N         144.1236  133.3318  156.1938 N.am    2  UNK2       -0.2969
     19 C         144.5956  132.2659  157.1378 C.3     2  UNK2        0.1486
     20 C         145.6291  132.9598  157.9748 C.3     2  UNK2        0.0312
     21 C         144.5730  130.8681  157.6813 C.2     2  UNK2        0.2406
     22 O         145.5956  130.8928  158.7783 O.2     2  UNK2       -0.2733
     23 N         144.0609  129.4583  157.6996 N.am    2  UNK2       -0.2969
     24 C         143.1767  128.3597  157.1886 C.3     2  UNK2        0.1519
     25 C         142.1229  127.8238  156.2654 C.2     2  UNK2        0.2408
     26 O         141.9728  126.3914  156.6848 O.2     2  UNK2       -0.2733
     27 N         141.1408  127.9735  155.1414 N.am    2  UNK2       -0.2954
     28 C         140.4557  128.7745  154.0742 C.3     2  UNK2        0.1714
     29 C         140.2242  130.0432  153.3082 C.2     2  UNK2        0.3349
     30 O         139.1654  129.6732  152.3122 O.2     2  UNK2       -0.2483
     31 O         140.4996  131.4891  153.0189 O.3     2  UNK2       -0.4489
     32 C         141.2187  132.7808  153.2726 C.3     2  UNK2        0.1956
     33 C         140.5323  133.5801  152.2049 C.3     2  UNK2        0.0497
     34 H         144.6537  134.1220  156.4466 H       2  UNK2        0.1499
     35 H         144.5712  129.0317  158.4254 H       2  UNK2        0.1499
     36 H         140.7339  127.0805  155.0636 H       2  UNK2        0.1499
     37 C         139.5076  127.7971  153.4449 C.3     2  UNK2        0.0289
     38 C         139.2287  127.8647  151.9725 C.3     2  UNK2        0.0023
     39 C         138.8385  126.7523  154.2877 C.3     2  UNK2        0.0022
     40 C         138.3670  127.0929  155.6704 C.3     2  UNK2        0.0001
     41 C         143.5310  127.1838  158.0499 C.3     2  UNK2        0.0693
     42 C         144.8145  127.1824  158.8261 C.3     2  UNK2        0.1690
     43 C         146.1088  126.5633  158.3885 C.3     2  UNK2        0.2006
     44 N         147.1233  126.7981  159.4682 N.pl3   2  UNK2       -0.2224
     45 C         146.4560  127.5623  160.5730 C.cat   2  UNK2        0.3634
     46 N         147.1022  128.0103  161.8504 N.2     2  UNK2       -0.1334
     47 N         145.0291  127.7998  160.1762 N.pl3   2  UNK2       -0.2251
     48 H         148.0623  126.5025  159.4541 H       2  UNK2        0.2453
     49 H         148.0499  127.8055  162.0209 H       2  UNK2        0.3058
     50 H         144.3522  128.2771  160.7084 H       2  UNK2        0.2452
     51 C         139.7823  137.7287  152.5269 C.3     2  UNK2        0.1660
     52 O         138.7178  138.4787  153.2714 O.3     2  UNK2       -0.3798
     53 H         138.3494  137.9120  153.9670 H       2  UNK2        0.2105
     54 CB        144.7348  139.8771  154.6722 C.3     1  PHE1        0.0269
     55 CG2       145.0651  138.8361  154.7296 C.3     1  PHE1        0.0022
     56 CG1       145.8100  140.8544  155.0449 C.3     1  PHE1        0.0021
     57 CD1       145.7598  141.5554  156.3700 C.3     1  PHE1        0.0001
     58 CA        142.4537  144.2203  154.5815 C.3     1  PHE1        0.1485
     59 C         140.4160  145.1346  155.9087 C.2     1  PHE1        0.2406
     60 O         139.5233  144.1458  155.2193 O.2     1  PHE1       -0.2733
     61 N         141.8812  145.1719  155.5898 N.am    1  PHE1       -0.2970
     62 H         142.4671  145.8209  156.0423 H       1  PHE1        0.1499
     63 CA        139.8435  146.0863  156.9170 C.3     1  PHE1        0.1491
     64 C         141.1719  145.6403  159.1047 C.2     1  PHE1        0.2432
     65 O         142.4579  145.8948  158.3758 O.2     1  PHE1       -0.2732
     66 N         139.8647  145.7360  158.3753 N.am    1  PHE1       -0.2969
     67 H         139.0206  145.5689  158.8537 H       1  PHE1        0.1499
     68 CA        141.1930  145.2900  160.5631 C.3     1  PHE1        0.1782
     69 C         141.8512  143.1250  161.8397 C.2     1  PHE1        0.2407
     70 O         140.4002  142.8063  162.0474 O.2     1  PHE1       -0.2733
     71 N         142.2476  144.3668  161.0975 N.am    1  PHE1       -0.2950
     72 H         143.1999  144.5759  160.9611 H       1  PHE1        0.1499
     73 CA        142.9058  142.2018  162.3740 C.3     1  PHE1        0.1485
     74 N         142.7949  140.7236  162.1445 N.am    1  PHE1       -0.2972
     75 C         143.1939  140.1379  160.8224 C.2     1  PHE1        0.2374
     76 O         143.7038  141.0304  159.7299 O.2     1  PHE1       -0.2736
     77 H         142.4603  140.1379  162.8615 H       1  PHE1        0.1499
     78 CA        143.0831  138.6597  160.5929 C.3     1  PHE1        0.1359
     79 N         143.1457  138.1105  159.1985 N.3     1  PHE1       -0.2899
     80 C         141.9253  138.1363  158.3267 C.3     0  ACE0        0.0862
     81 H         143.4293  137.1340  159.2791 H       1  PHE1        0.1237
     82 CB        142.9096  137.7308  161.7578 C.3     1  PHE1        0.0514
     83 CG        141.6172  137.7155  162.5189 C.ar    1  PHE1       -0.0203
     84 CD1       141.6249  137.5206  164.0062 C.ar    1  PHE1       -0.0042
     85 CE1       140.3325  137.5053  164.7673 C.ar    1  PHE1       -0.0003
     86 CZ        139.0323  137.6849  164.0411 C.ar    1  PHE1       -0.0000
     87 CE2       139.0246  137.8798  162.5539 C.ar    1  PHE1       -0.0003
     88 CD2       140.3170  137.8951  161.7928 C.ar    1  PHE1       -0.0042
     89 CB        144.0713  142.7569  163.1379 C.3     1  PHE1        0.0269
     90 CG2       145.0351  142.3949  162.7693 C.3     1  PHE1        0.0022
     91 CD1       143.9941  143.2319  165.6909 C.3     1  PHE1        0.0001
     92 CG1       143.8387  143.7055  164.2762 C.3     1  PHE1        0.0021
     93 CB        140.1596  145.8629  161.4871 C.3     1  PHE1        0.1660
     94 O         139.0750  146.7457  160.9444 O.3     1  PHE1       -0.3798
     95 H         139.4652  147.5674  160.6077 H       1  PHE1        0.2105
     96 CB        139.2498  147.3882  156.4669 C.3     1  PHE1        0.0385
     97 CG        139.3943  147.8246  155.0391 C.3     1  PHE1        0.0870
     98 CD        139.7086  149.2564  154.7205 C.2     1  PHE1        0.2194
     99 NE2       139.1486  150.3551  155.5745 N.am    1  PHE1       -0.3288
    100 OE1       140.5828  149.5893  153.5481 O.2     1  PHE1       -0.2753
    101 HE21      138.5748  150.1365  156.3441 H       1  PHE1        0.1449
    102 HE22      139.3549  151.2948  155.3655 H       1  PHE1        0.1449
    103 CB        142.8293  144.7119  153.2150 C.3     1  PHE1        0.0269
    104 CG2       141.7616  144.9961  152.2005 C.3     1  PHE1        0.0022
    105 CG1       144.2726  144.9193  152.8630 C.3     1  PHE1        0.0021
    106 CD1       145.3405  144.6330  153.8768 C.3     1  PHE1        0.0001
@<TRIPOS>BOND
     1    91    92    1
     2    92    89    1
     3    89    90    1
     4    89    73    1
     5    73    74    1
     6    74    75   am
     7    75    76    2
     8    75    78    1
     9    78    82    1
    10    82    83    1
    11    83    84   ar
    12    84    85   ar
    13    85    86   ar
    14    86    87   ar
    15    87    88   ar
    16    78    79    1
    17    79    80    1
    18    73    69    1
    19    69    70    2
    20    69    71   am
    21    71    68    1
    22    68    93    1
    23    93    94    1
    24    68    64    1
    25    64    65    2
    26    64    66   am
    27    66    63    1
    28    63    96    1
    29    96    97    1
    30    97    98    1
    31    98    99   am
    32    98   100    2
    33    63    59    1
    34    59    60    2
    35    59    61   am
    36    58    61    1
    37    58     1    1
    38     1     2    2
    39     1     3   am
    40     5     3    1
    41     5     6    1
    42     6     7    2
    43     6     8   am
    44     8    10    1
    45    10    51    1
    46    51    52    1
    47    10    11    1
    48    11    12    2
    49    11    13   am
    50    15    13    1
    51    15    16    1
    52    16    17    2
    53    16    18   am
    54    18    19    1
    55    19    20    1
    56    19    21    1
    57    21    22    2
    58    21    23   am
    59    23    24    1
    60    24    41    1
    61    42    41    1
    62    42    43    1
    63    43    44    1
    64    44    45    1
    65    45    46    2
    66    45    47    1
    67    24    25    1
    68    25    26    2
    69    25    27   am
    70    28    27    1
    71    28    37    1
    72    37    38    1
    73    37    39    1
    74    39    40    1
    75    28    29    1
    76    29    30    2
    77    29    31    1
    78    31    32    1
    79    32    33    1
    80     5    54    1
    81    54    55    1
    82    54    56    1
    83    56    57    1
    84    58   103    1
    85   103   104    1
    86   103   105    1
    87   105   106    1
    88    88    83   ar
    89    32    15    1
    90    47    42    1
    91    74    77    1
    92    79    81    1
    93    71    72    1
    94    94    95    1
    95    66    67    1
    96    99   101    1
    97    99   102    1
    98    61    62    1
    99     3     4    1
   100     8     9    1
   101    52    53    1
   102    13    14    1
   103    18    34    1
   104    23    35    1
   105    44    48    1
   106    46    49    1
   107    47    50    1
   108    27    36    1
@<TRIPOS>MOLECULE
*****
 106 108 0 0 0
SMALL
GASTEIGER

@<TRIPOS>ATOM
      1 C         141.1484  138.1273  155.5725 C.2     1  PHE1        0.2406
      2 O         140.2197  137.1025  156.1532 O.2     1  PHE1       -0.2733
      3 N         141.3504  139.4386  156.2723 N.am    1  PHE1       -0.2970
      4 H         141.9599  140.1113  155.8911 H       1  PHE1        0.1499
      5 CA        140.6237  139.7250  157.5529 C.3     1  PHE1        0.1485
      6 C         141.1979  139.2650  158.8601 C.2     1  PHE1        0.2407
      7 O         140.5723  138.1139  159.5905 O.2     1  PHE1       -0.2733
      8 N         142.3977  139.9562  159.4370 N.am    2  UNK2       -0.2950
      9 H         142.8083  140.7118  158.9576 H       2  UNK2        0.1499
     10 C         142.9719  139.4962  160.7442 C.3     2  UNK2        0.1782
     11 C         142.2382  139.7702  162.0234 C.2     2  UNK2        0.2433
     12 O         141.1929  140.8367  161.8825 O.2     2  UNK2       -0.2732
     13 N         142.5851  139.0045  163.2658 N.am    2  UNK2       -0.2941
     14 H         143.2944  138.3222  163.2416 H       2  UNK2        0.1500
     15 C         141.8513  139.2786  164.5450 C.3     2  UNK2        0.1890
     16 C         140.6323  138.4094  164.4529 C.2     2  UNK2        0.2443
     17 O         140.7825  137.7195  163.1295 O.2     2  UNK2       -0.2732
     18 N         139.3412  137.8706  164.9941 N.am    2  UNK2       -0.2969
     19 C         138.2741  137.7855  166.0448 C.3     2  UNK2        0.1486
     20 C         137.2957  136.7968  165.4834 C.3     2  UNK2        0.0312
     21 C         137.6752  138.1735  167.3642 C.2     2  UNK2        0.2406
     22 O         136.4102  137.3706  167.4342 O.2     2  UNK2       -0.2733
     23 N         137.6818  138.9458  168.6500 N.am    2  UNK2       -0.2969
     24 C         138.2924  139.9256  169.6077 C.3     2  UNK2        0.1519
     25 C         139.3671  140.8883  170.0179 C.2     2  UNK2        0.2408
     26 O         138.9119  141.3847  171.3583 O.2     2  UNK2       -0.2733
     27 N         140.6598  141.6134  169.7867 N.am    2  UNK2       -0.2954
     28 C         141.8741  141.9347  168.9670 C.3     2  UNK2        0.1714
     29 C         142.7321  141.7787  167.7465 C.2     2  UNK2        0.3349
     30 O         143.8874  142.7014  167.9995 O.2     2  UNK2       -0.2483
     31 O         143.0370  141.1811  166.4049 O.3     2  UNK2       -0.4489
     32 C         142.7192  140.2789  165.2495 C.3     2  UNK2        0.1956
     33 C         143.9342  140.6015  164.4312 C.3     2  UNK2        0.0497
     34 H         139.0343  137.2484  164.2956 H       2  UNK2        0.1499
     35 H         136.8536  138.6615  169.0999 H       2  UNK2        0.1499
     36 H         140.7670  142.1670  170.5937 H       2  UNK2        0.1499
     37 C         142.6187  142.9320  169.8042 C.3     2  UNK2        0.0289
     38 C         144.0836  142.7453  170.0673 C.3     2  UNK2        0.0023
     39 C         141.8985  144.1159  170.3783 C.3     2  UNK2        0.0022
     40 C         140.4754  144.3885  169.9904 C.3     2  UNK2        0.0001
     41 C         137.3228  139.9612  170.7516 C.3     2  UNK2        0.0693
     42 C         137.0084  138.7046  171.5078 C.3     2  UNK2        0.1690
     43 C         137.9903  137.6377  171.8918 C.3     2  UNK2        0.2006
     44 N         137.2457  136.5678  172.6340 N.pl3   2  UNK2       -0.2224
     45 C         135.8036  136.9735  172.7088 C.cat   2  UNK2        0.3634
     46 N         134.7015  136.1953  173.3645 N.2     2  UNK2       -0.1334
     47 N         135.6569  138.2941  172.0127 N.pl3   2  UNK2       -0.2251
     48 H         137.6352  135.7440  173.0067 H       2  UNK2        0.2453
     49 H         134.8980  135.3334  173.7979 H       2  UNK2        0.3058
     50 H         134.8205  138.8022  171.9060 H       2  UNK2        0.2452
     51 C         144.2798  138.7623  160.7719 C.3     2  UNK2        0.1660
     52 O         144.3986  137.4693  161.5230 O.3     2  UNK2       -0.3798
     53 H         144.2854  137.6351  162.4720 H       2  UNK2        0.2105
     54 CB        139.3230  140.4714  157.5263 C.3     1  PHE1        0.0269
     55 CG2       138.5379  140.3989  156.7685 C.3     1  PHE1        0.0022
     56 CG1       138.9913  141.4397  158.6229 C.3     1  PHE1        0.0021
     57 CD1       138.2446  140.9712  159.8366 C.3     1  PHE1        0.0001
     58 CA        141.8751  137.8409  154.2919 C.3     1  PHE1        0.1485
     59 C         142.6996  140.1187  153.3530 C.2     1  PHE1        0.2406
     60 O         141.2831  140.6093  153.2993 O.2     1  PHE1       -0.2733
     61 N         142.9956  138.7346  153.8493 N.am    1  PHE1       -0.2970
     62 H         143.9253  138.4126  153.8846 H       1  PHE1        0.1499
     63 CA        143.8202  141.0124  152.9105 C.3     1  PHE1        0.1491
     64 C         143.2572  143.2612  154.0832 C.2     1  PHE1        0.2432
     65 O         143.1067  142.5417  155.3908 O.2     1  PHE1       -0.2732
     66 N         143.6139  142.4965  152.8431 N.am    1  PHE1       -0.2969
     67 H         143.7127  142.9687  151.9849 H       1  PHE1        0.1499
     68 CA        143.0509  144.7455  154.0158 C.3     1  PHE1        0.1782
     69 C         140.8147  145.2740  155.2283 C.2     1  PHE1        0.2407
     70 O         140.0811  144.3963  154.2579 O.2     1  PHE1       -0.2733
     71 N         142.2996  145.4486  155.1072 N.am    1  PHE1       -0.2950
     72 H         142.7810  146.0246  155.7441 H       1  PHE1        0.1499
     73 CA        140.0634  145.9771  156.3196 C.3     1  PHE1        0.1485
     74 N         139.9746  145.3627  157.6852 N.am    1  PHE1       -0.2972
     75 C         141.2144  145.1891  158.5116 C.2     1  PHE1        0.2374
     76 O         142.5429  145.6299  157.9724 O.2     1  PHE1       -0.2736
     77 H         139.1026  145.0735  158.0390 H       1  PHE1        0.1499
     78 CA        141.1255  144.5747  159.8771 C.3     1  PHE1        0.1359
     79 N         141.8409  143.2890  160.1690 N.3     1  PHE1       -0.2899
     80 C         143.2396  143.3150  160.7102 C.3     0  ACE0        0.0862
     81 H         141.8732  142.7649  159.2945 H       1  PHE1        0.1237
     82 CB        140.3214  145.2461  160.9507 C.3     1  PHE1        0.0514
     83 CG        140.0191  144.5185  162.2271 C.ar    1  PHE1       -0.0203
     84 CD1       140.9383  144.6557  163.4045 C.ar    1  PHE1       -0.0042
     85 CE1       140.6360  143.9282  164.6808 C.ar    1  PHE1       -0.0003
     86 CZ        139.4144  143.0633  164.7799 C.ar    1  PHE1       -0.0000
     87 CE2       138.4952  142.9261  163.6025 C.ar    1  PHE1       -0.0003
     88 CD2       138.7975  143.6536  162.3262 C.ar    1  PHE1       -0.0042
     89 CB        139.4009  147.2947  156.0455 C.3     1  PHE1        0.0269
     90 CG2       138.8946  147.7089  156.9218 C.3     1  PHE1        0.0022
     91 CD1       139.7041  149.3785  154.5238 C.3     1  PHE1        0.0001
     92 CG1       139.4796  147.9033  154.6768 C.3     1  PHE1        0.0021
     93 CB        143.5959  145.5266  152.8570 C.3     1  PHE1        0.1660
     94 O         145.0688  145.5181  152.5732 O.3     1  PHE1       -0.3798
     95 H         145.5406  145.9549  153.2996 H       1  PHE1        0.2105
     96 CB        145.1470  140.4218  152.5354 C.3     1  PHE1        0.0385
     97 CG        146.3517  140.6796  153.3911 C.3     1  PHE1        0.0870
     98 CD        146.1852  140.9651  154.8543 C.2     1  PHE1        0.2194
     99 NE2       145.8080  139.8600  155.7959 N.am    1  PHE1       -0.3288
    100 OE1       146.3959  142.3555  155.3758 O.2     1  PHE1       -0.2753
    101 HE21      145.6696  138.9474  155.4536 H       1  PHE1        0.1449
    102 HE22      145.6987  140.0474  156.7562 H       1  PHE1        0.1449
    103 CB        141.4812  136.6609  153.4538 C.3     1  PHE1        0.0269
    104 CG2       140.2927  136.7511  152.5430 C.3     1  PHE1        0.0022
    105 CG1       142.2757  135.3906  153.5265 C.3     1  PHE1        0.0021
    106 CD1       142.6395  134.8089  154.8604 C.3     1  PHE1        0.0001
@<TRIPOS>BOND
     1    91    92    1
     2    92    89    1
     3    89    90    1
     4    89    73    1
     5    73    74    1
     6    74    75   am
     7    75    76    2
     8    75    78    1
     9    78    82    1
    10    82    83    1
    11    83    84   ar
    12    84    85   ar
    13    85    86   ar
    14    86    87   ar
    15    87    88   ar
    16    78    79    1
    17    79    80    1
    18    73    69    1
    19    69    70    2
    20    69    71   am
    21    71    68    1
    22    68    93    1
    23    93    94    1
    24    68    64    1
    25    64    65    2
    26    64    66   am
    27    66    63    1
    28    63    96    1
    29    96    97    1
    30    97    98    1
    31    98    99   am
    32    98   100    2
    33    63    59    1
    34    59    60    2
    35    59    61   am
    36    58    61    1
    37    58     1    1
    38     1     2    2
    39     1     3   am
    40     5     3    1
    41     5     6    1
    42     6     7    2
    43     6     8   am
    44     8    10    1
    45    10    51    1
    46    51    52    1
    47    10    11    1
    48    11    12    2
    49    11    13   am
    50    15    13    1
    51    15    16    1
    52    16    17    2
    53    16    18   am
    54    18    19    1
    55    19    20    1
    56    19    21    1
    57    21    22    2
    58    21    23   am
    59    23    24    1
    60    24    41    1
    61    42    41    1
    62    42    43    1
    63    43    44    1
    64    44    45    1
    65    45    46    2
    66    45    47    1
    67    24    25    1
    68    25    26    2
    69    25    27   am
    70    28    27    1
    71    28    37    1
    72    37    38    1
    73    37    39    1
    74    39    40    1
    75    28    29    1
    76    29    30    2
    77    29    31    1
    78    31    32    1
    79    32    33    1
    80     5    54    1
    81    54    55    1
    82    54    56    1
    83    56    57    1
    84    58   103    1
    85   103   104    1
    86   103   105    1
    87   105   106    1
    88    88    83   ar
    89    32    15    1
    90    47    42    1
    91    74    77    1
    92    79    81    1
    93    71    72    1
    94    94    95    1
    95    66    67    1
    96    99   101    1
    97    99   102    1
    98    61    62    1
    99     3     4    1
   100     8     9    1
   101    52    53    1
   102    13    14    1
   103    18    34    1
   104    23    35    1
   105    44    48    1
   106    46    49    1
   107    47    50    1
   108    27    36    1
@<TRIPOS>MOLECULE
*****
 106 108 0 0 0
SMALL
GASTEIGER

@<TRIPOS>ATOM
      1 C         141.1728  141.3480  156.5720 C.2     1  PHE1        0.2406
      2 O         140.8385  140.5848  157.8193 O.2     1  PHE1       -0.2733
      3 N         141.6880  140.6226  155.3643 N.am    1  PHE1       -0.2970
      4 H         141.9073  141.1235  154.5456 H       1  PHE1        0.1499
      5 CA        141.8689  139.1341  155.4040 C.3     1  PHE1        0.1485
      6 C         142.5952  138.4971  156.5514 C.2     1  PHE1        0.2407
      7 O         144.0782  138.6738  156.6912 O.2     1  PHE1       -0.2733
      8 N         141.8386  137.6834  157.5592 N.am    2  UNK2       -0.2950
      9 H         140.8653  137.5674  157.4674 H       2  UNK2        0.1499
     10 C         142.5650  137.0465  158.7066 C.3     2  UNK2        0.1782
     11 C         142.4932  137.6605  160.0733 C.2     2  UNK2        0.2433
     12 O         143.6037  137.2119  160.9763 O.2     2  UNK2       -0.2732
     13 N         141.3862  138.6153  160.4093 N.am    2  UNK2       -0.2941
     14 H         140.7067  138.8389  159.7329 H       2  UNK2        0.1500
     15 C         141.3144  139.2293  161.7760 C.3     2  UNK2        0.1890
     16 C         140.2936  138.3949  162.4913 C.2     2  UNK2        0.2443
     17 O         139.8768  137.3815  161.4670 O.2     2  UNK2       -0.2732
     18 N         139.4722  138.0455  163.6968 N.am    2  UNK2       -0.2969
     19 C         139.0386  138.2613  165.1165 C.3     2  UNK2        0.1486
     20 C         138.0211  137.1839  165.3486 C.3     2  UNK2        0.0312
     21 C         139.0919  138.9926  166.4250 C.2     2  UNK2        0.2406
     22 O         138.1000  138.2653  167.2835 O.2     2  UNK2       -0.2733
     23 N         139.6201  140.0721  167.3227 N.am    2  UNK2       -0.2969
     24 C         140.5020  141.2524  167.6038 C.3     2  UNK2        0.1519
     25 C         141.5357  142.2631  167.2039 C.2     2  UNK2        0.2408
     26 O         141.7135  143.1013  168.4353 O.2     2  UNK2       -0.2733
     27 N         142.4844  142.8728  166.2147 N.am    2  UNK2       -0.2954
     28 C         143.1307  142.9416  164.8629 C.3     2  UNK2        0.1714
     29 C         143.3266  142.4539  163.4580 C.2     2  UNK2        0.3349
     30 O         144.3614  143.3833  162.8963 O.2     2  UNK2       -0.2483
     31 O         143.0271  141.5214  162.3219 O.3     2  UNK2       -0.4489
     32 C         142.3009  140.3576  161.7149 C.3     2  UNK2        0.1956
     33 C         142.9484  140.4281  160.3636 C.3     2  UNK2        0.0497
     34 H         138.9406  137.2706  163.4033 H       2  UNK2        0.1499
     35 H         139.1349  139.9338  168.1681 H       2  UNK2        0.1499
     36 H         142.8991  143.6143  166.7121 H       2  UNK2        0.1499
     37 C         144.0718  144.1044  164.9738 C.3     2  UNK2        0.0289
     38 C         145.2652  144.0198  165.8786 C.3     2  UNK2        0.0023
     39 C         143.8195  145.3518  164.1799 C.3     2  UNK2        0.0022
     40 C         142.4155  145.7468  163.8296 C.3     2  UNK2        0.0001
     41 C         140.1850  141.6067  169.0264 C.3     2  UNK2        0.0693
     42 C         139.6184  140.5689  169.9493 C.3     2  UNK2        0.1690
     43 C         140.3621  139.8609  171.0427 C.3     2  UNK2        0.2006
     44 N         139.4119  138.9113  171.7101 N.pl3   2  UNK2       -0.2224
     45 C         138.0809  139.0324  171.0291 C.cat   2  UNK2        0.3634
     46 N         136.8401  138.2639  171.3755 N.2     2  UNK2       -0.1334
     47 N         138.2085  140.0568  169.9409 N.pl3   2  UNK2       -0.2251
     48 H         139.6245  138.3135  172.4629 H       2  UNK2        0.2453
     49 H         136.8557  137.6093  172.1107 H       2  UNK2        0.3058
     50 H         137.4926  140.3429  169.3286 H       2  UNK2        0.2452
     51 C         143.3632  135.7955  158.4873 C.3     2  UNK2        0.1660
     52 O         143.3259  134.6940  159.5047 O.3     2  UNK2       -0.3798
     53 H         143.7313  135.0024  160.3302 H       2  UNK2        0.2105
     54 CB        141.3234  138.2825  154.2962 C.3     1  PHE1        0.0269
     55 CG2       140.5904  138.5767  153.5398 C.3     1  PHE1        0.0022
     56 CG1       141.7849  136.8634  154.1444 C.3     1  PHE1        0.0021
     57 CD1       141.8973  136.2533  152.7786 C.3     1  PHE1        0.0001
     58 CA        140.9919  142.8365  156.5323 C.3     1  PHE1        0.1485
     59 C         139.1459  143.4823  154.8222 C.2     1  PHE1        0.2406
     60 O         139.9989  142.9603  153.7042 O.2     1  PHE1       -0.2733
     61 N         139.6423  143.4204  156.2362 N.am    1  PHE1       -0.2970
     62 H         139.0824  143.7630  156.9700 H       1  PHE1        0.1499
     63 CA        137.7962  144.0662  154.5260 C.3     1  PHE1        0.1491
     64 C         135.9534  142.2359  154.5872 C.2     1  PHE1        0.2432
     65 O         136.1818  142.0551  156.0587 O.2     1  PHE1       -0.2732
     66 N         136.7606  143.2415  153.8209 N.am    1  PHE1       -0.2969
     67 H         136.6107  143.3602  152.8552 H       1  PHE1        0.1499
     68 CA        134.9177  141.4112  153.8820 C.3     1  PHE1        0.1782
     69 C         132.7828  140.8305  155.2441 C.2     1  PHE1        0.2407
     70 O         133.5596  139.8151  156.0287 O.2     1  PHE1       -0.2733
     71 N         133.4618  141.6285  154.1707 N.am    1  PHE1       -0.2950
     72 H         132.9520  142.2949  153.6557 H       1  PHE1        0.1499
     73 CA        131.3270  141.0478  155.5327 C.3     1  PHE1        0.1485
     74 N         130.6557  142.3144  155.0910 N.am    1  PHE1       -0.2972
     75 C         129.9375  142.3631  153.7750 C.2     1  PHE1        0.2374
     76 O         129.8906  141.1451  152.9007 O.2     1  PHE1       -0.2736
     77 H         130.6865  143.1138  155.6649 H       1  PHE1        0.1499
     78 CA        129.2662  143.6297  153.3333 C.3     1  PHE1        0.1359
     79 N         129.9661  144.5584  152.3859 N.3     1  PHE1       -0.2899
     80 C         130.4051  145.9148  152.8523 C.3     0  ACE0        0.0862
     81 H         129.3341  144.7078  151.5993 H       1  PHE1        0.1237
     82 CB        127.8951  143.9675  153.8391 C.3     1  PHE1        0.0514
     83 CG        127.4334  143.4391  155.1649 C.ar    1  PHE1       -0.0203
     84 CD1       126.9949  142.0102  155.2912 C.ar    1  PHE1       -0.0042
     85 CE1       126.5332  141.4817  156.6168 C.ar    1  PHE1       -0.0003
     86 CZ        126.5101  142.3822  157.8163 C.ar    1  PHE1       -0.0000
     87 CE2       126.9486  143.8111  157.6900 C.ar    1  PHE1       -0.0003
     88 CD2       127.4103  144.3395  156.3643 C.ar    1  PHE1       -0.0042
     89 CB        130.5425  139.9984  156.2631 C.3     1  PHE1        0.0269
     90 CG2       130.0661  139.2775  155.5929 C.3     1  PHE1        0.0022
     91 CD1       129.2171  139.6034  158.4624 C.3     1  PHE1        0.0001
     92 CG1       130.4766  140.0185  157.7614 C.3     1  PHE1        0.0021
     93 CB        135.3378  140.3692  152.8882 C.3     1  PHE1        0.1660
     94 O         135.7793  139.0161  153.3615 O.3     1  PHE1       -0.3798
     95 H         136.6042  139.1027  153.8644 H       1  PHE1        0.2105
     96 CB        137.4823  145.4748  154.9351 C.3     1  PHE1        0.0385
     97 CG        138.5705  146.5067  154.9673 C.3     1  PHE1        0.0870
     98 CD        139.0028  147.1004  156.2752 C.2     1  PHE1        0.2194
     99 NE2       138.5910  148.4965  156.6377 N.am    1  PHE1       -0.3288
    100 OE1       139.8467  146.2980  157.2205 O.2     1  PHE1       -0.2753
    101 HE21      138.0371  149.0231  156.0172 H       1  PHE1        0.1449
    102 HE22      138.8747  148.8861  157.4962 H       1  PHE1        0.1449
    103 CB        142.1606  143.7411  156.7888 C.3     1  PHE1        0.0269
    104 CG2       142.5357  144.1013  158.1958 C.3     1  PHE1        0.0022
    105 CG1       142.9543  144.2856  155.6383 C.3     1  PHE1        0.0021
    106 CD1       142.3495  145.3153  154.7306 C.3     1  PHE1        0.0001
@<TRIPOS>BOND
     1    91    92    1
     2    92    89    1
     3    89    90    1
     4    89    73    1
     5    73    74    1
     6    74    75   am
     7    75    76    2
     8    75    78    1
     9    78    82    1
    10    82    83    1
    11    83    84   ar
    12    84    85   ar
    13    85    86   ar
    14    86    87   ar
    15    87    88   ar
    16    78    79    1
    17    79    80    1
    18    73    69    1
    19    69    70    2
    20    69    71   am
    21    71    68    1
    22    68    93    1
    23    93    94    1
    24    68    64    1
    25    64    65    2
    26    64    66   am
    27    66    63    1
    28    63    96    1
    29    96    97    1
    30    97    98    1
    31    98    99   am
    32    98   100    2
    33    63    59    1
    34    59    60    2
    35    59    61   am
    36    58    61    1
    37    58     1    1
    38     1     2    2
    39     1     3   am
    40     5     3    1
    41     5     6    1
    42     6     7    2
    43     6     8   am
    44     8    10    1
    45    10    51    1
    46    51    52    1
    47    10    11    1
    48    11    12    2
    49    11    13   am
    50    15    13    1
    51    15    16    1
    52    16    17    2
    53    16    18   am
    54    18    19    1
    55    19    20    1
    56    19    21    1
    57    21    22    2
    58    21    23   am
    59    23    24    1
    60    24    41    1
    61    42    41    1
    62    42    43    1
    63    43    44    1
    64    44    45    1
    65    45    46    2
    66    45    47    1
    67    24    25    1
    68    25    26    2
    69    25    27   am
    70    28    27    1
    71    28    37    1
    72    37    38    1
    73    37    39    1
    74    39    40    1
    75    28    29    1
    76    29    30    2
    77    29    31    1
    78    31    32    1
    79    32    33    1
    80     5    54    1
    81    54    55    1
    82    54    56    1
    83    56    57    1
    84    58   103    1
    85   103   104    1
    86   103   105    1
    87   105   106    1
    88    88    83   ar
    89    32    15    1
    90    47    42    1
    91    74    77    1
    92    79    81    1
    93    71    72    1
    94    94    95    1
    95    66    67    1
    96    99   101    1
    97    99   102    1
    98    61    62    1
    99     3     4    1
   100     8     9    1
   101    52    53    1
   102    13    14    1
   103    18    34    1
   104    23    35    1
   105    44    48    1
   106    46    49    1
   107    47    50    1
   108    27    36    1
@<TRIPOS>MOLECULE
*****
 106 108 0 0 0
SMALL
GASTEIGER

@<TRIPOS>ATOM
      1 C         141.1951  141.4785  157.0502 C.2     1  PHE1        0.2406
      2 O         141.8650  140.2565  157.6053 O.2     1  PHE1       -0.2733
      3 N         141.1499  141.7009  155.5675 N.am    1  PHE1       -0.2970
      4 H         140.7102  142.5028  155.2031 H       1  PHE1        0.1499
      5 CA        141.7747  140.7013  154.6398 C.3     1  PHE1        0.1485
      6 C         140.9920  139.5028  154.1912 C.2     1  PHE1        0.2407
      7 O         139.5007  139.4782  154.3510 O.2     1  PHE1       -0.2733
      8 N         141.7006  138.3290  153.5829 N.am    2  UNK2       -0.2950
      9 H         142.6794  138.3452  153.4780 H       2  UNK2        0.1499
     10 C         140.9179  137.1306  153.1343 C.3     2  UNK2        0.1782
     11 C         141.0715  135.8228  153.8526 C.2     2  UNK2        0.2433
     12 O         140.1770  135.7037  155.0508 O.2     2  UNK2       -0.2732
     13 N         142.0464  134.8002  153.3486 N.am    2  UNK2       -0.2941
     14 H         142.5854  134.9874  152.5463 H       2  UNK2        0.1500
     15 C         142.1999  133.4924  154.0669 C.3     2  UNK2        0.1890
     16 C         143.2374  133.7767  155.1124 C.2     2  UNK2        0.2443
     17 O         143.5803  135.2206  154.8944 O.2     2  UNK2       -0.2732
     18 N         144.1107  133.3699  156.2621 N.am    2  UNK2       -0.2969
     19 C         144.6196  132.3652  157.2528 C.3     2  UNK2        0.1486
     20 C         145.6243  133.1335  158.0593 C.3     2  UNK2        0.0312
     21 C         144.6479  130.9928  157.8575 C.2     2  UNK2        0.2406
     22 O         145.6660  131.1042  158.9533 O.2     2  UNK2       -0.2733
     23 N         144.1888  129.5670  157.9376 N.am    2  UNK2       -0.2969
     24 C         143.3476  128.4146  157.4748 C.3     2  UNK2        0.1519
     25 C         142.3170  127.7994  156.5752 C.2     2  UNK2        0.2408
     26 O         142.2194  126.3823  157.0574 O.2     2  UNK2       -0.2733
     27 N         141.3330  127.8625  155.4447 N.am    2  UNK2       -0.2954
     28 C         140.6212  128.5893  154.3425 C.3     2  UNK2        0.1714
     29 C         140.3445  129.8134  153.5209 C.2     2  UNK2        0.3349
     30 O         139.3029  129.3604  152.5412 O.2     2  UNK2       -0.2483
     31 O         140.5664  131.2544  153.1683 O.3     2  UNK2       -0.4489
     32 C         141.2360  132.5821  153.3653 C.3     2  UNK2        0.1956
     33 C         140.5231  133.3072  152.2626 C.3     2  UNK2        0.0497
     34 H         144.6101  134.1898  156.4803 H       2  UNK2        0.1499
     35 H         144.7128  129.1922  158.6821 H       2  UNK2        0.1499
     36 H         140.9599  126.9522  155.4061 H       2  UNK2        0.1499
     37 C         139.7120  127.5503  153.7561 C.3     2  UNK2        0.0289
     38 C         139.9162  127.0855  152.3446 C.3     2  UNK2        0.0023
     39 C         138.5986  126.9761  154.5810 C.3     2  UNK2        0.0022
     40 C         138.4997  127.3062  156.0409 C.3     2  UNK2        0.0001
     41 C         143.7434  127.2919  158.3876 C.3     2  UNK2        0.0693
     42 C         145.0319  127.3654  159.1518 C.3     2  UNK2        0.1690
     43 C         145.1901  127.8222  160.5717 C.3     2  UNK2        0.2006
     44 N         146.6446  127.7342  160.9277 N.pl3   2  UNK2       -0.2224
     45 C         147.3854  127.2229  159.7278 C.cat   2  UNK2        0.3634
     46 N         148.8633  126.9819  159.6407 N.2     2  UNK2       -0.1334
     47 N         146.3887  126.9950  158.6302 N.pl3   2  UNK2       -0.2251
     48 H         147.0431  127.9704  161.7964 H       2  UNK2        0.2453
     49 H         149.4382  127.1624  160.4192 H       2  UNK2        0.3058
     50 H         146.5897  126.6610  157.7262 H       2  UNK2        0.2452
     51 C         139.9817  137.2401  151.9675 C.3     2  UNK2        0.1660
     52 O         138.7942  138.1533  152.0418 O.3     2  UNK2       -0.3798
     53 H         138.1768  137.8269  152.7150 H       2  UNK2        0.2105
     54 CB        143.1821  140.9002  154.1607 C.3     1  PHE1        0.0269
     55 CG2       143.4977  141.3194  153.2013 C.3     1  PHE1        0.0022
     56 CG1       144.3349  140.5058  155.0356 C.3     1  PHE1        0.0021
     57 CD1       145.5524  139.8714  154.4312 C.3     1  PHE1        0.0001
     58 CA        140.5703  142.4780  157.9779 C.3     1  PHE1        0.1485
     59 C         139.2957  141.1818  159.8339 C.2     1  PHE1        0.2406
     60 O         138.4086  140.5646  158.7936 O.2     1  PHE1       -0.2733
     61 N         140.3766  142.1385  159.4260 N.am    1  PHE1       -0.2970
     62 H         140.9588  142.5435  160.1088 H       1  PHE1        0.1499
     63 CA        139.1020  140.8422  161.2821 C.3     1  PHE1        0.1491
     64 C         138.3989  142.3281  163.2939 C.2     1  PHE1        0.2432
     65 O         136.9960  141.8077  163.1880 O.2     1  PHE1       -0.2732
     66 N         139.4518  141.8453  162.3409 N.am    1  PHE1       -0.2969
     67 H         140.3726  142.1869  162.4104 H       1  PHE1        0.1499
     68 CA        138.7487  143.3312  164.3528 C.3     1  PHE1        0.1782
     69 C         140.3441  142.0891  165.9844 C.2     1  PHE1        0.2407
     70 O         139.3055  141.0267  166.1911 O.2     1  PHE1       -0.2733
     71 N         140.0657  143.2413  165.0653 N.am    1  PHE1       -0.2950
     72 H         140.7474  143.9386  164.9296 H       1  PHE1        0.1499
     73 CA        141.6610  141.9992  166.6968 C.3     1  PHE1        0.1485
     74 N         142.9342  142.2906  165.9592 N.am    1  PHE1       -0.2972
     75 C         143.1120  141.8077  164.5502 C.2     1  PHE1        0.2374
     76 O         142.0166  141.0335  163.8788 O.2     1  PHE1       -0.2736
     77 H         143.6531  142.7987  166.3998 H       1  PHE1        0.1499
     78 CA        144.3852  142.0991  163.8126 C.3     1  PHE1        0.1359
     79 N         145.5744  141.2014  163.9855 N.3     1  PHE1       -0.2899
     80 C         145.3773  139.7402  164.2615 C.3     0  ACE0        0.0862
     81 H         146.1166  141.5774  164.7633 H       1  PHE1        0.1237
     82 CB        144.4691  143.2881  162.9020 C.3     1  PHE1        0.0514
     83 CG        143.2466  144.1145  162.6329 C.ar    1  PHE1       -0.0203
     84 CD1       142.7222  145.0435  163.6874 C.ar    1  PHE1       -0.0042
     85 CE1       141.4997  145.8699  163.4183 C.ar    1  PHE1       -0.0003
     86 CZ        140.8015  145.7672  162.0947 C.ar    1  PHE1       -0.0000
     87 CE2       141.3258  144.8382  161.0402 C.ar    1  PHE1       -0.0003
     88 CD2       142.5483  144.0119  161.3093 C.ar    1  PHE1       -0.0042
     89 CB        141.7047  141.6180  168.1469 C.3     1  PHE1        0.0269
     90 CG2       141.5209  142.4628  168.8165 C.3     1  PHE1        0.0022
     91 CD1       142.6890  139.2791  167.5900 C.3     1  PHE1        0.0001
     92 CG1       141.9797  140.1971  168.5409 C.3     1  PHE1        0.0021
     93 CB        137.7817  144.4243  164.6993 C.3     1  PHE1        0.1660
     94 O         137.8123  145.0485  166.0629 O.3     1  PHE1       -0.3798
     95 H         137.5561  144.3888  166.7263 H       1  PHE1        0.2105
     96 CB        138.5584  139.4994  161.6713 C.3     1  PHE1        0.0385
     97 CG        139.4751  138.3153  161.7574 C.3     1  PHE1        0.0870
     98 CD        140.1210  137.9602  163.0639 C.2     1  PHE1        0.2194
     99 NE2       139.9501  138.8578  164.2535 N.am    1  PHE1       -0.3288
    100 OE1       140.9379  136.7077  163.1806 O.2     1  PHE1       -0.2753
    101 HE21      139.4139  139.6799  164.1769 H       1  PHE1        0.1449
    102 HE22      140.3740  138.6247  165.1110 H       1  PHE1        0.1449
    103 CB        140.1392  143.8172  157.4574 C.3     1  PHE1        0.0269
    104 CG2       138.7345  144.0158  156.9703 C.3     1  PHE1        0.0022
    105 CG1       141.1130  144.9577  157.4239 C.3     1  PHE1        0.0021
    106 CD1       140.8001  146.1877  156.6243 C.3     1  PHE1        0.0001
@<TRIPOS>BOND
     1    91    92    1
     2    92    89    1
     3    89    90    1
     4    89    73    1
     5    73    74    1
     6    74    75   am
     7    75    76    2
     8    75    78    1
     9    78    82    1
    10    82    83    1
    11    83    84   ar
    12    84    85   ar
    13    85    86   ar
    14    86    87   ar
    15    87    88   ar
    16    78    79    1
    17    79    80    1
    18    73    69    1
    19    69    70    2
    20    69    71   am
    21    71    68    1
    22    68    93    1
    23    93    94    1
    24    68    64    1
    25    64    65    2
    26    64    66   am
    27    66    63    1
    28    63    96    1
    29    96    97    1
    30    97    98    1
    31    98    99   am
    32    98   100    2
    33    63    59    1
    34    59    60    2
    35    59    61   am
    36    58    61    1
    37    58     1    1
    38     1     2    2
    39     1     3   am
    40     5     3    1
    41     5     6    1
    42     6     7    2
    43     6     8   am
    44     8    10    1
    45    10    51    1
    46    51    52    1
    47    10    11    1
    48    11    12    2
    49    11    13   am
    50    15    13    1
    51    15    16    1
    52    16    17    2
    53    16    18   am
    54    18    19    1
    55    19    20    1
    56    19    21    1
    57    21    22    2
    58    21    23   am
    59    23    24    1
    60    24    41    1
    61    42    41    1
    62    42    43    1
    63    43    44    1
    64    44    45    1
    65    45    46    2
    66    45    47    1
    67    24    25    1
    68    25    26    2
    69    25    27   am
    70    28    27    1
    71    28    37    1
    72    37    38    1
    73    37    39    1
    74    39    40    1
    75    28    29    1
    76    29    30    2
    77    29    31    1
    78    31    32    1
    79    32    33    1
    80     5    54    1
    81    54    55    1
    82    54    56    1
    83    56    57    1
    84    58   103    1
    85   103   104    1
    86   103   105    1
    87   105   106    1
    88    88    83   ar
    89    32    15    1
    90    47    42    1
    91    74    77    1
    92    79    81    1
    93    71    72    1
    94    94    95    1
    95    66    67    1
    96    99   101    1
    97    99   102    1
    98    61    62    1
    99     3     4    1
   100     8     9    1
   101    52    53    1
   102    13    14    1
   103    18    34    1
   104    23    35    1
   105    44    48    1
   106    46    49    1
   107    47    50    1
   108    27    36    1
@<TRIPOS>MOLECULE
*****
 106 108 0 0 0
SMALL
GASTEIGER

@<TRIPOS>ATOM
      1 C         142.1660  143.7787  159.6023 C.2     1  PHE1        0.2406
      2 O         143.3479  143.7104  160.5235 O.2     1  PHE1       -0.2733
      3 N         142.0928  142.8742  158.4079 N.am    1  PHE1       -0.2970
      4 H         141.3171  142.9191  157.8033 H       1  PHE1        0.1499
      5 CA        143.2014  141.9014  158.1347 C.3     1  PHE1        0.1485
      6 C         143.3355  140.6631  158.9705 C.2     1  PHE1        0.2407
      7 O         143.1134  139.3140  158.3535 O.2     1  PHE1       -0.2733
      8 N         143.6918  140.7738  160.4234 N.am    2  UNK2       -0.2950
      9 H         143.8376  141.6592  160.8284 H       2  UNK2        0.1499
     10 C         143.8259  139.5355  161.2592 C.3     2  UNK2        0.1782
     11 C         143.3494  139.5354  162.6815 C.2     2  UNK2        0.2433
     12 O         143.8443  138.3561  163.4652 O.2     2  UNK2       -0.2732
     13 N         142.4704  140.6448  163.1780 N.am    2  UNK2       -0.2941
     14 H         142.2062  141.3730  162.5704 H       2  UNK2        0.1500
     15 C         141.9939  140.6447  164.6003 C.3     2  UNK2        0.1890
     16 C         140.7548  139.8000  164.5637 C.2     2  UNK2        0.2443
     17 O         140.6383  139.3959  163.1239 O.2     2  UNK2       -0.2732
     18 N         139.5715  139.1488  165.2162 N.am    2  UNK2       -0.2969
     19 C         138.7152  138.8403  166.4085 C.3     2  UNK2        0.1486
     20 C         137.6224  137.9767  165.8515 C.3     2  UNK2        0.0312
     21 C         138.3817  138.9449  167.8671 C.2     2  UNK2        0.2406
     22 O         137.1294  138.1316  168.0085 O.2     2  UNK2       -0.2733
     23 N         138.6477  139.4390  169.2582 N.am    2  UNK2       -0.2969
     24 C         139.4522  140.2092  170.2630 C.3     2  UNK2        0.1519
     25 C         140.6109  141.0792  170.6513 C.2     2  UNK2        0.2408
     26 O         140.4255  141.2873  172.1252 O.2     2  UNK2       -0.2733
     27 N         141.8583  141.8495  170.3341 N.am    2  UNK2       -0.2954
     28 C         142.9086  142.3438  169.3842 C.3     2  UNK2        0.1714
     29 C         143.5214  142.4488  168.0191 C.2     2  UNK2        0.3349
     30 O         144.7290  143.3124  168.2330 O.2     2  UNK2       -0.2483
     31 O         143.5561  142.1404  166.5515 O.3     2  UNK2       -0.4489
     32 C         143.0048  141.4893  165.3177 C.3     2  UNK2        0.1956
     33 C         144.0561  141.9846  164.3693 C.3     2  UNK2        0.0497
     34 H         139.1233  138.6789  164.4762 H       2  UNK2        0.1499
     35 H         137.9093  139.0604  169.7880 H       2  UNK2        0.1499
     36 H         142.1285  142.2281  171.2018 H       2  UNK2        0.1499
     37 C         143.8230  143.1571  170.2516 C.3     2  UNK2        0.0289
     38 C         143.2642  144.2528  171.1103 C.3     2  UNK2        0.0023
     39 C         145.2961  142.8749  170.2604 C.3     2  UNK2        0.0022
     40 C         146.2421  143.8465  170.9015 C.3     2  UNK2        0.0001
     41 C         138.7122  140.0009  171.5510 C.3     2  UNK2        0.0693
     42 C         137.6048  138.9920  171.6250 C.3     2  UNK2        0.1690
     43 C         136.2450  139.1285  171.0068 C.3     2  UNK2        0.2006
     44 N         135.4625  137.8903  171.3299 N.pl3   2  UNK2       -0.2224
     45 C         136.3386  136.9885  172.1479 C.cat   2  UNK2        0.3634
     46 N         135.9577  135.6422  172.6887 N.2     2  UNK2       -0.1334
     47 N         137.6627  137.6694  172.3303 N.pl3   2  UNK2       -0.2251
     48 H         134.5364  137.7024  171.0536 H       2  UNK2        0.2453
     49 H         135.0598  135.2779  172.5147 H       2  UNK2        0.3058
     50 H         138.4342  137.3112  172.8259 H       2  UNK2        0.2452
     51 C         144.4366  138.2973  160.6727 C.3     2  UNK2        0.1660
     52 O         143.6688  137.0088  160.6749 O.3     2  UNK2       -0.3798
     53 H         143.5417  136.7097  161.5888 H       2  UNK2        0.2105
     54 CB        144.1758  142.1669  157.0258 C.3     1  PHE1        0.0269
     55 CG2       144.0828  142.9140  156.2326 C.3     1  PHE1        0.0022
     56 CG1       145.4376  141.3617  156.9273 C.3     1  PHE1        0.0021
     57 CD1       145.6314  140.4079  155.7859 C.3     1  PHE1        0.0001
     58 CA        141.0574  144.7516  159.8755 C.3     1  PHE1        0.1485
     59 C         140.7048  145.8435  157.5446 C.2     1  PHE1        0.2406
     60 O         142.1813  146.0837  157.4338 O.2     1  PHE1       -0.2733
     61 N         140.1428  145.1775  158.7655 N.am    1  PHE1       -0.2970
     62 H         139.1738  145.0199  158.8382 H       1  PHE1        0.1499
     63 CA        139.7902  146.2695  156.4346 C.3     1  PHE1        0.1491
     64 C         138.7956  144.4690  154.8475 C.2     1  PHE1        0.2432
     65 O         140.0850  144.4314  154.0820 O.2     1  PHE1       -0.2732
     66 N         138.6482  145.3881  156.0238 N.am    1  PHE1       -0.2969
     67 H         137.8020  145.4128  156.5263 H       1  PHE1        0.1499
     68 CA        137.6535  143.5876  154.4368 C.3     1  PHE1        0.1782
     69 C         138.2656  141.0690  154.6162 C.2     1  PHE1        0.2407
     70 O         139.2490  141.2280  153.4948 O.2     1  PHE1       -0.2733
     71 N         137.4678  142.2487  155.0872 N.am    1  PHE1       -0.2950
     72 H         136.8223  142.1443  155.8232 H       1  PHE1        0.1499
     73 CA        138.0798  139.7302  155.2667 C.3     1  PHE1        0.1485
     74 N         137.9896  139.6282  156.7605 N.am    1  PHE1       -0.2972
     75 C         139.1418  140.0698  157.6134 C.2     1  PHE1        0.2374
     76 O         140.3843  140.6135  156.9724 O.2     1  PHE1       -0.2736
     77 H         137.1742  139.2714  157.1812 H       1  PHE1        0.1499
     78 CA        139.0516  139.9678  159.1072 C.3     1  PHE1        0.1359
     79 N         140.2519  139.5507  159.9043 N.3     1  PHE1       -0.2899
     80 C         140.5444  138.0944  160.1133 C.3     0  ACE0        0.0862
     81 H         140.1494  139.9662  160.8302 H       1  PHE1        0.1237
     82 CB        137.7611  140.2828  159.8039 C.3     1  PHE1        0.0514
     83 CG        137.7702  141.0772  161.0763 C.ar    1  PHE1       -0.0203
     84 CD1       138.1162  142.5364  161.0469 C.ar    1  PHE1       -0.0042
     85 CE1       138.1253  143.3307  162.3192 C.ar    1  PHE1       -0.0003
     86 CZ        137.7883  142.6659  163.6209 C.ar    1  PHE1       -0.0000
     87 CE2       137.4422  141.2066  163.6502 C.ar    1  PHE1       -0.0003
     88 CD2       137.4331  140.4123  162.3779 C.ar    1  PHE1       -0.0042
     89 CB        137.9843  138.4935  154.4233 C.3     1  PHE1        0.0269
     90 CG2       136.9561  138.2421  154.1486 C.3     1  PHE1        0.0022
     91 CD1       140.2361  137.3871  155.0979 C.3     1  PHE1        0.0001
     92 CG1       139.2282  137.7450  154.0462 C.3     1  PHE1        0.0021
     93 CB        136.6971  144.0450  153.3755 C.3     1  PHE1        0.1660
     94 O         136.1593  143.0633  152.3770 O.3     1  PHE1       -0.3798
     95 H         136.8831  142.7431  151.8162 H       1  PHE1        0.2105
     96 CB        140.0178  147.5769  155.7353 C.3     1  PHE1        0.0385
     97 CG        138.8477  148.3975  155.2800 C.3     1  PHE1        0.0870
     98 CD        138.4120  149.5904  156.0783 C.2     1  PHE1        0.2194
     99 NE2       138.0040  149.4248  157.5123 N.am    1  PHE1       -0.3288
    100 OE1       138.3844  150.9487  155.4428 O.2     1  PHE1       -0.2753
    101 HE21      138.0222  148.5332  157.9294 H       1  PHE1        0.1449
    102 HE22      137.7181  150.2077  158.0363 H       1  PHE1        0.1449
    103 CB        140.8634  145.2984  161.2587 C.3     1  PHE1        0.0269
    104 CG2       139.7889  146.3118  161.5207 C.3     1  PHE1        0.0022
    105 CG1       141.7438  144.8319  162.3800 C.3     1  PHE1        0.0021
    106 CD1       141.1830  144.6878  163.7638 C.3     1  PHE1        0.0001
@<TRIPOS>BOND
     1    91    92    1
     2    92    89    1
     3    89    90    1
     4    89    73    1
     5    73    74    1
     6    74    75   am
     7    75    76    2
     8    75    78    1
     9    78    82    1
    10    82    83    1
    11    83    84   ar
    12    84    85   ar
    13    85    86   ar
    14    86    87   ar
    15    87    88   ar
    16    78    79    1
    17    79    80    1
    18    73    69    1
    19    69    70    2
    20    69    71   am
    21    71    68    1
    22    68    93    1
    23    93    94    1
    24    68    64    1
    25    64    65    2
    26    64    66   am
    27    66    63    1
    28    63    96    1
    29    96    97    1
    30    97    98    1
    31    98    99   am
    32    98   100    2
    33    63    59    1
    34    59    60    2
    35    59    61   am
    36    58    61    1
    37    58     1    1
    38     1     2    2
    39     1     3   am
    40     5     3    1
    41     5     6    1
    42     6     7    2
    43     6     8   am
    44     8    10    1
    45    10    51    1
    46    51    52    1
    47    10    11    1
    48    11    12    2
    49    11    13   am
    50    15    13    1
    51    15    16    1
    52    16    17    2
    53    16    18   am
    54    18    19    1
    55    19    20    1
    56    19    21    1
    57    21    22    2
    58    21    23   am
    59    23    24    1
    60    24    41    1
    61    42    41    1
    62    42    43    1
    63    43    44    1
    64    44    45    1
    65    45    46    2
    66    45    47    1
    67    24    25    1
    68    25    26    2
    69    25    27   am
    70    28    27    1
    71    28    37    1
    72    37    38    1
    73    37    39    1
    74    39    40    1
    75    28    29    1
    76    29    30    2
    77    29    31    1
    78    31    32    1
    79    32    33    1
    80     5    54    1
    81    54    55    1
    82    54    56    1
    83    56    57    1
    84    58   103    1
    85   103   104    1
    86   103   105    1
    87   105   106    1
    88    88    83   ar
    89    32    15    1
    90    47    42    1
    91    74    77    1
    92    79    81    1
    93    71    72    1
    94    94    95    1
    95    66    67    1
    96    99   101    1
    97    99   102    1
    98    61    62    1
    99     3     4    1
   100     8     9    1
   101    52    53    1
   102    13    14    1
   103    18    34    1
   104    23    35    1
   105    44    48    1
   106    46    49    1
   107    47    50    1
   108    27    36    1
@<TRIPOS>MOLECULE
*****
 106 108 0 0 0
SMALL
GASTEIGER

@<TRIPOS>ATOM
      1 C         141.4394  139.0102  165.4795 C.2     1  PHE1        0.2406
      2 O         141.0740  137.9178  164.5187 O.2     1  PHE1       -0.2733
      3 N         140.3659  139.8589  166.0938 N.am    1  PHE1       -0.2970
      4 H         140.6057  140.5759  166.7243 H       1  PHE1        0.1499
      5 CA        138.9269  139.6150  165.7473 C.3     1  PHE1        0.1485
      6 C         138.3467  140.2040  164.4957 C.2     1  PHE1        0.2407
      7 O         137.0688  139.6570  163.9318 O.2     1  PHE1       -0.2733
      8 N         139.0443  141.3400  163.8079 N.am    2  UNK2       -0.2950
      9 H         139.8829  141.6990  164.1780 H       2  UNK2        0.1499
     10 C         138.4640  141.9289  162.5563 C.3     2  UNK2        0.1782
     11 C         138.5383  141.1688  161.2654 C.2     2  UNK2        0.2433
     12 O         137.4577  140.1373  161.1297 O.2     2  UNK2       -0.2732
     13 N         139.6193  141.4796  160.2731 N.am    2  UNK2       -0.2941
     14 H         140.2801  142.1826  160.4691 H       2  UNK2        0.1500
     15 C         139.6936  140.7194  158.9821 C.3     2  UNK2        0.1890
     16 C         140.7217  139.6601  159.2480 C.2     2  UNK2        0.2443
     17 O         141.1396  139.9133  160.6661 O.2     2  UNK2       -0.2732
     18 N         141.5499  138.4796  158.8350 N.am    2  UNK2       -0.2969
     19 C         141.9883  137.4484  157.8378 C.3     2  UNK2        0.1486
     20 C         143.0124  136.6429  158.5811 C.3     2  UNK2        0.0312
     21 C         141.9367  136.8026  156.4850 C.2     2  UNK2        0.2406
     22 O         142.9359  135.6881  156.5807 O.2     2  UNK2       -0.2733
     23 N         141.4066  136.6903  155.0862 N.am    2  UNK2       -0.2969
     24 C         140.5197  137.1372  153.9621 C.3     2  UNK2        0.1519
     25 C         139.4791  138.0408  153.3701 C.2     2  UNK2        0.2408
     26 O         139.3021  137.5190  151.9749 O.2     2  UNK2       -0.2733
     27 N         138.5231  139.1943  153.4459 N.am    2  UNK2       -0.2954
     28 C         137.8708  140.3332  154.1720 C.3     2  UNK2        0.1714
     29 C         137.6717  141.1969  155.3822 C.2     2  UNK2        0.3349
     30 O         136.6297  142.1856  154.9501 O.2     2  UNK2       -0.2483
     31 O         137.9713  141.5872  156.7992 O.3     2  UNK2       -0.4489
     32 C         138.7010  141.4149  158.0984 C.3     2  UNK2        0.1956
     33 C         138.0475  142.5543  158.8228 C.3     2  UNK2        0.0497
     34 H         142.0844  138.2749  159.6361 H       2  UNK2        0.1499
     35 H         141.8960  135.9235  154.7097 H       2  UNK2        0.1499
     36 H         138.1066  139.2142  152.5540 H       2  UNK2        0.1499
     37 C         136.9241  140.9086  153.1606 C.3     2  UNK2        0.0289
     38 C         135.4469  140.6949  153.3095 C.3     2  UNK2        0.0023
     39 C         137.4546  141.6976  152.0006 C.3     2  UNK2        0.0022
     40 C         137.8566  143.1304  152.1891 C.3     2  UNK2        0.0001
     41 C         140.8408  136.1828  152.8504 C.3     2  UNK2        0.0693
     42 C         140.9002  134.7087  153.1211 C.3     2  UNK2        0.1690
     43 C         140.5716  133.6189  152.1442 C.3     2  UNK2        0.2006
     44 N         140.7670  132.3022  152.8356 N.pl3   2  UNK2       -0.2224
     45 C         141.2163  132.5781  154.2398 C.cat   2  UNK2        0.3634
     46 N         141.5285  131.5478  155.2843 N.2     2  UNK2       -0.1334
     47 N         141.2987  134.0654  154.4163 N.pl3   2  UNK2       -0.2251
     48 H         140.6251  131.4129  152.4376 H       2  UNK2        0.2453
     49 H         141.4442  130.5902  155.0717 H       2  UNK2        0.3058
     50 H         141.5671  134.5367  155.2379 H       2  UNK2        0.2452
     51 C         137.8095  143.2780  162.5958 C.3     2  UNK2        0.1660
     52 O         138.4382  144.4380  161.8824 O.3     2  UNK2       -0.3798
     53 H         139.2847  144.6559  162.3030 H       2  UNK2        0.2105
     54 CB        138.0683  138.7823  166.6523 C.3     1  PHE1        0.0269
     55 CG2       137.5549  139.1123  167.5597 C.3     1  PHE1        0.0022
     56 CG1       137.8423  137.3314  166.3459 C.3     1  PHE1        0.0021
     57 CD1       138.4698  136.7149  165.1309 C.3     1  PHE1        0.0001
     58 CA        142.8784  139.2540  165.8259 C.3     1  PHE1        0.1485
     59 C         143.0699  140.9425  163.8608 C.2     1  PHE1        0.2406
     60 O         141.6044  140.7850  163.5826 O.2     1  PHE1       -0.2733
     61 N         143.7069  140.1771  164.9824 N.am    1  PHE1       -0.2970
     62 H         144.6688  140.2805  165.1650 H       1  PHE1        0.1499
     63 CA        143.8985  141.8656  163.0172 C.3     1  PHE1        0.1491
     64 C         143.4915  141.9739  160.4536 C.2     1  PHE1        0.2432
     65 O         144.3043  140.7263  160.2718 O.2     1  PHE1       -0.2732
     66 N         143.2886  142.5435  161.8263 N.am    1  PHE1       -0.2969
     67 H         142.7551  143.3622  161.9456 H       1  PHE1        0.1499
     68 CA        142.8815  142.6518  159.2626 C.3     1  PHE1        0.1782
     69 C         144.3754  142.1534  157.1962 C.2     1  PHE1        0.2407
     70 O         145.5301  142.8377  157.8659 O.2     1  PHE1       -0.2733
     71 N         143.0511  142.0605  157.8945 N.am    1  PHE1       -0.2950
     72 H         142.2933  141.6113  157.4550 H       1  PHE1        0.1499
     73 CA        144.5450  141.5621  155.8282 C.3     1  PHE1        0.1485
     74 N         143.5178  141.8217  154.7663 N.am    1  PHE1       -0.2972
     75 C         143.5728  143.0875  153.9632 C.2     1  PHE1        0.2374
     76 O         144.6548  144.0935  154.2220 O.2     1  PHE1       -0.2736
     77 H         142.8077  141.1614  154.5964 H       1  PHE1        0.1499
     78 CA        142.5457  143.3471  152.9013 C.3     1  PHE1        0.1359
     79 N         142.1339  142.2451  151.9707 N.3     1  PHE1       -0.2899
     80 C         141.1223  141.2293  152.4122 C.3     0  ACE0        0.0862
     81 H         142.9813  141.7311  151.7296 H       1  PHE1        0.1237
     82 CB        141.9303  144.7088  152.7699 C.3     1  PHE1        0.0514
     83 CG        140.9649  145.1988  153.8081 C.ar    1  PHE1       -0.0203
     84 CD1       140.7238  146.6701  153.9732 C.ar    1  PHE1       -0.0042
     85 CE1       139.7585  147.1601  155.0113 C.ar    1  PHE1       -0.0003
     86 CZ        139.0340  146.1789  155.8844 C.ar    1  PHE1       -0.0000
     87 CE2       139.2751  144.7076  155.7194 C.ar    1  PHE1       -0.0003
     88 CD2       140.2404  144.2175  154.6812 C.ar    1  PHE1       -0.0042
     89 CB        145.7417  140.7111  155.5220 C.3     1  PHE1        0.0269
     90 CG2       145.5135  139.6416  155.5095 C.3     1  PHE1        0.0022
     91 CD1       147.3976  141.9074  153.9170 C.3     1  PHE1        0.0001
     92 CG1       147.0743  141.3527  155.2727 C.3     1  PHE1        0.0021
     93 CB        142.1020  143.9211  159.4396 C.3     1  PHE1        0.1660
     94 O         140.9736  143.9767  160.4263 O.3     1  PHE1       -0.3798
     95 H         140.2602  143.3874  160.1352 H       1  PHE1        0.2105
     96 CB        145.3370  142.1107  163.3647 C.3     1  PHE1        0.0385
     97 CG        145.6880  142.9525  164.5555 C.3     1  PHE1        0.0870
     98 CD        144.6070  143.6545  165.3227 C.2     1  PHE1        0.2194
     99 NE2       144.0823  144.9749  164.8417 N.am    1  PHE1       -0.3288
    100 OE1       144.0508  143.0362  166.5710 O.2     1  PHE1       -0.2753
    101 HE21      144.4475  145.3807  164.0224 H       1  PHE1        0.1449
    102 HE22      143.3729  145.4356  165.3453 H       1  PHE1        0.1449
    103 CB        143.4887  138.5748  167.0160 C.3     1  PHE1        0.0269
    104 CG2       144.5819  137.5656  166.8247 C.3     1  PHE1        0.0022
    105 CG1       143.0060  138.9048  168.3973 C.3     1  PHE1        0.0021
    106 CD1       142.7948  140.3353  168.7962 C.3     1  PHE1        0.0001
@<TRIPOS>BOND
     1    91    92    1
     2    92    89    1
     3    89    90    1
     4    89    73    1
     5    73    74    1
     6    74    75   am
     7    75    76    2
     8    75    78    1
     9    78    82    1
    10    82    83    1
    11    83    84   ar
    12    84    85   ar
    13    85    86   ar
    14    86    87   ar
    15    87    88   ar
    16    78    79    1
    17    79    80    1
    18    73    69    1
    19    69    70    2
    20    69    71   am
    21    71    68    1
    22    68    93    1
    23    93    94    1
    24    68    64    1
    25    64    65    2
    26    64    66   am
    27    66    63    1
    28    63    96    1
    29    96    97    1
    30    97    98    1
    31    98    99   am
    32    98   100    2
    33    63    59    1
    34    59    60    2
    35    59    61   am
    36    58    61    1
    37    58     1    1
    38     1     2    2
    39     1     3   am
    40     5     3    1
    41     5     6    1
    42     6     7    2
    43     6     8   am
    44     8    10    1
    45    10    51    1
    46    51    52    1
    47    10    11    1
    48    11    12    2
    49    11    13   am
    50    15    13    1
    51    15    16    1
    52    16    17    2
    53    16    18   am
    54    18    19    1
    55    19    20    1
    56    19    21    1
    57    21    22    2
    58    21    23   am
    59    23    24    1
    60    24    41    1
    61    42    41    1
    62    42    43    1
    63    43    44    1
    64    44    45    1
    65    45    46    2
    66    45    47    1
    67    24    25    1
    68    25    26    2
    69    25    27   am
    70    28    27    1
    71    28    37    1
    72    37    38    1
    73    37    39    1
    74    39    40    1
    75    28    29    1
    76    29    30    2
    77    29    31    1
    78    31    32    1
    79    32    33    1
    80     5    54    1
    81    54    55    1
    82    54    56    1
    83    56    57    1
    84    58   103    1
    85   103   104    1
    86   103   105    1
    87   105   106    1
    88    88    83   ar
    89    32    15    1
    90    47    42    1
    91    74    77    1
    92    79    81    1
    93    71    72    1
    94    94    95    1
    95    66    67    1
    96    99   101    1
    97    99   102    1
    98    61    62    1
    99     3     4    1
   100     8     9    1
   101    52    53    1
   102    13    14    1
   103    18    34    1
   104    23    35    1
   105    44    48    1
   106    46    49    1
   107    47    50    1
   108    27    36    1
