@<TRIPOS>MOLECULE
*****
 35 39 0 0 0
SMALL
GASTEIGER

@<TRIPOS>ATOM
      1 C         139.9650  138.8139  162.0557 C.ar    1  UNL1        0.0839
      2 C         139.2582  137.6804  162.7380 C.ar    1  UNL1        0.0192
      3 C         138.9940  137.7408  164.2133 C.ar    1  UNL1        0.0030
      4 C         139.4365  138.9347  165.0062 C.ar    1  UNL1        0.0174
      5 C         139.1722  138.9951  166.4816 C.ar    1  UNL1       -0.0027
      6 C         139.6148  140.1890  167.2745 C.ar    1  UNL1       -0.0207
      7 C         140.3216  141.3225  166.5921 C.ar    1  UNL1       -0.0027
      8 C         140.5859  141.2621  165.1169 C.ar    1  UNL1        0.0188
      9 C         140.1433  140.0682  164.3239 C.ar    1  UNL1        0.0812
     10 N         140.4075  140.0078  162.8486 N.ar    1  UNL1       -0.2453
     11 N         141.3155  138.3726  158.4436 N.ar    1  UNL1       -0.2162
     12 N         139.9565  138.9487  158.1766 N.ar    1  UNL1       -0.1624
     13 C         139.2852  139.1842  159.4971 C.ar    1  UNL1        0.1232
     14 C         140.2293  138.7536  160.5803 C.ar    1  UNL1        0.0522
     15 C         141.4841  138.2520  159.9292 C.ar    1  UNL1        0.0655
     16 C         142.6948  137.7227  160.6390 C.3     1  UNL1        0.0523
     17 C         144.9614  139.7129  154.9924 C.3     1  UNL1        0.0521
     18 C         144.1510  138.6553  155.6814 C.ar    1  UNL1        0.0610
     19 C         144.3533  137.2102  155.3339 C.ar    1  UNL1        0.0187
     20 C         143.5429  136.1525  156.0229 C.ar    1  UNL1        0.0756
     21 C         142.5304  136.5400  157.0594 C.ar    1  UNL1        0.0427
     22 C         142.3281  137.9851  157.4070 C.ar    1  UNL1        0.1629
     23 N         143.1384  139.0428  156.7180 N.ar    1  UNL1       -0.2309
     24 C         143.7452  134.7074  155.6753 C.3     1  UNL1        0.4187
     25 F         143.9474  133.2624  155.3278 F       1  UNL1       -0.1659
     26 F         143.3042  134.9841  154.2685 F       1  UNL1       -0.1659
     27 F         144.1862  134.4308  157.0821 F       1  UNL1       -0.1659
     28 C         139.3506  140.2494  168.7498 C.3     1  UNL1        0.0437
     29 C         140.4749  140.0475  169.7220 C.3     1  UNL1        0.0768
     30 N         141.5461  141.0888  169.8567 N.3     1  UNL1       -0.2737
     31 C         143.0198  140.8645  169.6891 C.3     1  UNL1        0.0721
     32 C         143.7162  142.1743  169.9113 C.3     1  UNL1        0.0187
     33 C         142.6729  143.2081  170.2163 C.3     1  UNL1        0.0174
     34 C         141.3317  142.5372  170.1825 C.3     1  UNL1        0.0576
     35 C         140.0086  143.1986  170.4309 C.3     1  UNL1        0.0173
@<TRIPOS>BOND
     1    17    18    1
     2    18    19   ar
     3    19    20   ar
     4    20    24    1
     5    24    25    1
     6    24    26    1
     7    24    27    1
     8    20    21   ar
     9    21    22   ar
    10    22    11    1
    11    11    12   ar
    12    12    13   ar
    13    13    14   ar
    14    14     1    1
    15     1     2   ar
    16     2     3   ar
    17     3     4   ar
    18     4     5   ar
    19     5     6   ar
    20     6    28    1
    21    28    29    1
    22    29    30    1
    23    30    31    1
    24    31    32    1
    25    32    33    1
    26    33    34    1
    27    34    35    1
    28     6     7   ar
    29     7     8   ar
    30     8     9   ar
    31     9    10   ar
    32    14    15   ar
    33    15    16    1
    34    22    23   ar
    35    23    18   ar
    36    15    11   ar
    37    10     1   ar
    38     9     4   ar
    39    34    30    1
@<TRIPOS>MOLECULE
*****
 35 39 0 0 0
SMALL
GASTEIGER

@<TRIPOS>ATOM
      1 C         141.4287  138.4082  159.5426 C.ar    1  UNL1        0.0839
      2 C         139.9439  138.5679  159.4018 C.ar    1  UNL1        0.0192
      3 C         139.0555  138.4091  160.5999 C.ar    1  UNL1        0.0030
      4 C         139.6519  138.0905  161.9388 C.ar    1  UNL1        0.0174
      5 C         138.7634  137.9316  163.1370 C.ar    1  UNL1       -0.0027
      6 C         139.3598  137.6130  164.4759 C.ar    1  UNL1       -0.0207
      7 C         140.8447  137.4532  164.6167 C.ar    1  UNL1       -0.0027
      8 C         141.7331  137.6121  163.4186 C.ar    1  UNL1        0.0188
      9 C         141.1367  137.9307  162.0797 C.ar    1  UNL1        0.0812
     10 N         142.0251  138.0896  160.8816 N.ar    1  UNL1       -0.2453
     11 N         143.7378  139.5470  156.6379 N.ar    1  UNL1       -0.2162
     12 N         143.6309  138.0761  156.3637 N.ar    1  UNL1       -0.1624
     13 C         142.7530  137.4705  157.4184 C.ar    1  UNL1        0.1232
     14 C         142.3172  138.5670  158.3445 C.ar    1  UNL1        0.0522
     15 C         142.9258  139.8504  157.8621 C.ar    1  UNL1        0.0655
     16 C         142.7529  141.2001  158.4932 C.3     1  UNL1        0.0523
     17 C         143.9277  143.1589  152.9074 C.3     1  UNL1        0.0521
     18 C         144.6143  142.3460  153.9646 C.ar    1  UNL1        0.0610
     19 C         146.0824  142.5262  154.2138 C.ar    1  UNL1        0.0187
     20 C         146.7691  141.7132  155.2710 C.ar    1  UNL1        0.0756
     21 C         145.9875  140.7202  156.0791 C.ar    1  UNL1        0.0427
     22 C         144.5193  140.5400  155.8299 C.ar    1  UNL1        0.1629
     23 N         143.8327  141.3530  154.7727 N.ar    1  UNL1       -0.2309
     24 C         148.2372  141.8934  155.5202 C.3     1  UNL1        0.4187
     25 F         149.7053  142.0735  155.7693 F       1  UNL1       -0.1659
     26 F         148.5315  141.4216  154.1270 F       1  UNL1       -0.1659
     27 F         147.9429  142.3651  156.9133 F       1  UNL1       -0.1659
     28 C         138.4714  137.4542  165.6740 C.3     1  UNL1        0.0437
     29 C         138.0334  138.6619  166.4484 C.3     1  UNL1        0.0768
     30 N         138.9578  139.8339  166.5961 N.3     1  UNL1       -0.2737
     31 C         139.9783  140.0209  167.6794 C.3     1  UNL1        0.0721
     32 C         140.6752  141.3273  167.4393 C.3     1  UNL1        0.0187
     33 C         140.0853  141.9477  166.2075 C.3     1  UNL1        0.0174
     34 C         139.0239  141.0248  165.6864 C.3     1  UNL1        0.0576
     35 C         138.1773  141.2526  164.4693 C.3     1  UNL1        0.0173
@<TRIPOS>BOND
     1    17    18    1
     2    18    19   ar
     3    19    20   ar
     4    20    24    1
     5    24    25    1
     6    24    26    1
     7    24    27    1
     8    20    21   ar
     9    21    22   ar
    10    22    11    1
    11    11    12   ar
    12    12    13   ar
    13    13    14   ar
    14    14     1    1
    15     1     2   ar
    16     2     3   ar
    17     3     4   ar
    18     4     5   ar
    19     5     6   ar
    20     6    28    1
    21    28    29    1
    22    29    30    1
    23    30    31    1
    24    31    32    1
    25    32    33    1
    26    33    34    1
    27    34    35    1
    28     6     7   ar
    29     7     8   ar
    30     8     9   ar
    31     9    10   ar
    32    14    15   ar
    33    15    16    1
    34    22    23   ar
    35    23    18   ar
    36    15    11   ar
    37    10     1   ar
    38     9     4   ar
    39    34    30    1
@<TRIPOS>MOLECULE
*****
 35 39 0 0 0
SMALL
GASTEIGER

@<TRIPOS>ATOM
      1 C         141.8751  144.6514  161.7380 C.ar    1  UNL1        0.0839
      2 C         140.6079  145.4519  161.7959 C.ar    1  UNL1        0.0192
      3 C         139.9692  145.9379  160.5287 C.ar    1  UNL1        0.0030
      4 C         140.5977  145.6233  159.2036 C.ar    1  UNL1        0.0174
      5 C         139.9589  146.1093  157.9363 C.ar    1  UNL1       -0.0027
      6 C         140.5874  145.7947  156.6111 C.ar    1  UNL1       -0.0207
      7 C         141.8547  144.9941  156.5532 C.ar    1  UNL1       -0.0027
      8 C         142.4934  144.5082  157.8205 C.ar    1  UNL1        0.0188
      9 C         141.8649  144.8228  159.1456 C.ar    1  UNL1        0.0812
     10 N         142.5036  144.3368  160.4128 N.ar    1  UNL1       -0.2453
     11 N         142.9906  142.8658  164.9989 N.ar    1  UNL1       -0.2162
     12 N         144.0029  143.9693  164.9118 N.ar    1  UNL1       -0.1624
     13 C         143.7083  144.7725  163.6797 C.ar    1  UNL1        0.1232
     14 C         142.5139  144.1654  163.0053 C.ar    1  UNL1        0.0522
     15 C         142.0703  142.9871  163.8206 C.ar    1  UNL1        0.0655
     16 C         140.9102  142.0878  163.5118 C.3     1  UNL1        0.0523
     17 C         143.4557  137.9175  166.5144 C.3     1  UNL1        0.0521
     18 C         143.1448  139.3499  166.8330 C.ar    1  UNL1        0.0610
     19 C         142.7557  139.7406  168.2280 C.ar    1  UNL1        0.0187
     20 C         142.4448  141.1730  168.5466 C.ar    1  UNL1        0.0756
     21 C         142.5231  142.2147  167.4702 C.ar    1  UNL1        0.0427
     22 C         142.9123  141.8241  166.0752 C.ar    1  UNL1        0.1629
     23 N         143.2231  140.3916  165.7566 N.ar    1  UNL1       -0.2309
     24 C         142.0557  141.5636  169.9416 C.3     1  UNL1        0.4187
     25 F         141.6666  141.9543  171.3365 F       1  UNL1       -0.1659
     26 F         141.8723  142.9832  169.4929 F       1  UNL1       -0.1659
     27 F         142.2391  140.1441  170.3903 F       1  UNL1       -0.1659
     28 C         139.9487  146.2806  155.3439 C.3     1  UNL1        0.0437
     29 C         138.7767  147.2148  155.4051 C.3     1  UNL1        0.0768
     30 N         138.9834  148.6899  155.2290 N.3     1  UNL1       -0.2737
     31 C         139.5449  149.3624  154.0114 C.3     1  UNL1        0.0721
     32 C         139.5734  150.8398  154.2694 C.3     1  UNL1        0.0187
     33 C         139.0295  151.0804  155.6465 C.3     1  UNL1        0.0174
     34 C         138.6649  149.7517  156.2395 C.3     1  UNL1        0.0576
     35 C         138.0837  149.5247  157.6036 C.3     1  UNL1        0.0173
@<TRIPOS>BOND
     1    17    18    1
     2    18    19   ar
     3    19    20   ar
     4    20    24    1
     5    24    25    1
     6    24    26    1
     7    24    27    1
     8    20    21   ar
     9    21    22   ar
    10    22    11    1
    11    11    12   ar
    12    12    13   ar
    13    13    14   ar
    14    14     1    1
    15     1     2   ar
    16     2     3   ar
    17     3     4   ar
    18     4     5   ar
    19     5     6   ar
    20     6    28    1
    21    28    29    1
    22    29    30    1
    23    30    31    1
    24    31    32    1
    25    32    33    1
    26    33    34    1
    27    34    35    1
    28     6     7   ar
    29     7     8   ar
    30     8     9   ar
    31     9    10   ar
    32    14    15   ar
    33    15    16    1
    34    22    23   ar
    35    23    18   ar
    36    15    11   ar
    37    10     1   ar
    38     9     4   ar
    39    34    30    1
@<TRIPOS>MOLECULE
*****
 35 39 0 0 0
SMALL
GASTEIGER

@<TRIPOS>ATOM
      1 C         141.3227  143.6846  162.8937 C.ar    1  UNL1        0.0839
      2 C         142.6402  144.0611  163.5040 C.ar    1  UNL1        0.0192
      3 C         143.1698  143.2925  164.6781 C.ar    1  UNL1        0.0030
      4 C         142.3820  142.1474  165.2420 C.ar    1  UNL1        0.0174
      5 C         142.9117  141.3787  166.4162 C.ar    1  UNL1       -0.0027
      6 C         142.1239  140.2336  166.9801 C.ar    1  UNL1       -0.0207
      7 C         140.8064  139.8571  166.3697 C.ar    1  UNL1       -0.0027
      8 C         140.2767  140.6257  165.1956 C.ar    1  UNL1        0.0188
      9 C         141.0645  141.7708  164.6317 C.ar    1  UNL1        0.0812
     10 N         140.5349  142.5395  163.4576 N.ar    1  UNL1       -0.2453
     11 N         140.3079  145.1503  159.4458 N.ar    1  UNL1       -0.2162
     12 N         139.6480  146.1216  160.3793 N.ar    1  UNL1       -0.1624
     13 C         139.9478  145.6907  161.7844 C.ar    1  UNL1        0.1232
     14 C         140.7930  144.4532  161.7195 C.ar    1  UNL1        0.0522
     15 C         141.0156  144.1193  160.2741 C.ar    1  UNL1        0.0655
     16 C         141.8069  142.9581  159.7492 C.3     1  UNL1        0.0523
     17 C         140.8682  142.7983  154.8466 C.3     1  UNL1        0.0521
     18 C         140.5475  144.0253  155.6476 C.ar    1  UNL1        0.0610
     19 C         140.1861  145.3031  154.9501 C.ar    1  UNL1        0.0187
     20 C         139.8653  146.5301  155.7512 C.ar    1  UNL1        0.0756
     21 C         139.9059  146.4791  157.2498 C.ar    1  UNL1        0.0427
     22 C         140.2673  145.2013  157.9473 C.ar    1  UNL1        0.1629
     23 N         140.5881  143.9743  157.1462 N.ar    1  UNL1       -0.2309
     24 C         139.5039  147.8079  155.0537 C.3     1  UNL1        0.4187
     25 F         139.1425  149.0857  154.3562 F       1  UNL1       -0.1659
     26 F         138.7855  148.2765  156.2843 F       1  UNL1       -0.1659
     27 F         140.2223  147.3394  153.8231 F       1  UNL1       -0.1659
     28 C         142.6535  139.4650  168.1542 C.3     1  UNL1        0.0437
     29 C         142.2789  139.8728  169.5483 C.3     1  UNL1        0.0768
     30 N         141.6407  141.2079  169.7933 N.3     1  UNL1       -0.2737
     31 C         142.3602  142.5166  169.9338 C.3     1  UNL1        0.0721
     32 C         141.3351  143.5864  170.1681 C.3     1  UNL1        0.0187
     33 C         139.9821  142.9388  170.1723 C.3     1  UNL1        0.0174
     34 C         140.1710  141.4689  169.9406 C.3     1  UNL1        0.0576
     35 C         139.0814  140.4405  169.8689 C.3     1  UNL1        0.0173
@<TRIPOS>BOND
     1    17    18    1
     2    18    19   ar
     3    19    20   ar
     4    20    24    1
     5    24    25    1
     6    24    26    1
     7    24    27    1
     8    20    21   ar
     9    21    22   ar
    10    22    11    1
    11    11    12   ar
    12    12    13   ar
    13    13    14   ar
    14    14     1    1
    15     1     2   ar
    16     2     3   ar
    17     3     4   ar
    18     4     5   ar
    19     5     6   ar
    20     6    28    1
    21    28    29    1
    22    29    30    1
    23    30    31    1
    24    31    32    1
    25    32    33    1
    26    33    34    1
    27    34    35    1
    28     6     7   ar
    29     7     8   ar
    30     8     9   ar
    31     9    10   ar
    32    14    15   ar
    33    15    16    1
    34    22    23   ar
    35    23    18   ar
    36    15    11   ar
    37    10     1   ar
    38     9     4   ar
    39    34    30    1
@<TRIPOS>MOLECULE
*****
 35 39 0 0 0
SMALL
GASTEIGER

@<TRIPOS>ATOM
      1 C         138.4035  142.1049  159.1302 C.ar    1  UNL1        0.0839
      2 C         138.8615  140.6767  159.1508 C.ar    1  UNL1        0.0192
      3 C         138.9311  139.9302  160.4499 C.ar    1  UNL1        0.0030
      4 C         138.5427  140.6118  161.7284 C.ar    1  UNL1        0.0174
      5 C         138.6122  139.8651  163.0276 C.ar    1  UNL1       -0.0027
      6 C         138.2238  140.5467  164.3061 C.ar    1  UNL1       -0.0207
      7 C         137.7658  141.9750  164.2854 C.ar    1  UNL1       -0.0027
      8 C         137.6962  142.7216  162.9863 C.ar    1  UNL1        0.0188
      9 C         138.0847  142.0399  161.7078 C.ar    1  UNL1        0.0812
     10 N         138.0151  142.7865  160.4087 N.ar    1  UNL1       -0.2453
     11 N         138.7554  144.4737  156.0756 N.ar    1  UNL1       -0.2162
     12 N         137.6984  143.5275  155.5883 N.ar    1  UNL1       -0.1624
     13 C         137.4379  142.5250  156.6733 C.ar    1  UNL1        0.1232
     14 C         138.3339  142.8516  157.8310 C.ar    1  UNL1        0.0522
     15 C         139.1482  144.0560  157.4616 C.ar    1  UNL1        0.0655
     16 C         140.1750  144.7252  158.3265 C.3     1  UNL1        0.0523
     17 C         141.9750  146.3305  152.4444 C.3     1  UNL1        0.0521
     18 C         140.9302  146.5623  153.4954 C.ar    1  UNL1        0.0610
     19 C         140.4504  147.9544  153.7818 C.ar    1  UNL1        0.0187
     20 C         139.4056  148.1862  154.8328 C.ar    1  UNL1        0.0756
     21 C         138.8406  147.0260  155.5974 C.ar    1  UNL1        0.0427
     22 C         139.3204  145.6340  155.3110 C.ar    1  UNL1        0.1629
     23 N         140.3652  145.4021  154.2600 N.ar    1  UNL1       -0.2309
     24 C         138.9258  149.5783  155.1192 C.3     1  UNL1        0.4187
     25 F         138.4461  150.9702  155.4056 F       1  UNL1       -0.1659
     26 F         138.4694  149.1411  156.4796 F       1  UNL1       -0.1659
     27 F         139.3823  150.0155  153.7589 F       1  UNL1       -0.1659
     28 C         138.2934  139.8001  165.6052 C.3     1  UNL1        0.0437
     29 C         139.5848  139.7367  166.3656 C.3     1  UNL1        0.0768
     30 N         139.8203  140.6621  167.5224 N.3     1  UNL1       -0.2737
     31 C         139.5184  140.3683  168.9621 C.3     1  UNL1        0.0721
     32 C         139.9104  141.5683  169.7721 C.3     1  UNL1        0.0187
     33 C         140.4547  142.6038  168.8330 C.3     1  UNL1        0.0174
     34 C         140.3989  142.0436  167.4427 C.3     1  UNL1        0.0576
     35 C         140.8437  142.7425  166.1922 C.3     1  UNL1        0.0173
@<TRIPOS>BOND
     1    17    18    1
     2    18    19   ar
     3    19    20   ar
     4    20    24    1
     5    24    25    1
     6    24    26    1
     7    24    27    1
     8    20    21   ar
     9    21    22   ar
    10    22    11    1
    11    11    12   ar
    12    12    13   ar
    13    13    14   ar
    14    14     1    1
    15     1     2   ar
    16     2     3   ar
    17     3     4   ar
    18     4     5   ar
    19     5     6   ar
    20     6    28    1
    21    28    29    1
    22    29    30    1
    23    30    31    1
    24    31    32    1
    25    32    33    1
    26    33    34    1
    27    34    35    1
    28     6     7   ar
    29     7     8   ar
    30     8     9   ar
    31     9    10   ar
    32    14    15   ar
    33    15    16    1
    34    22    23   ar
    35    23    18   ar
    36    15    11   ar
    37    10     1   ar
    38     9     4   ar
    39    34    30    1
@<TRIPOS>MOLECULE
*****
 35 39 0 0 0
SMALL
GASTEIGER

@<TRIPOS>ATOM
      1 C         141.4117  143.7946  162.9902 C.ar    1  UNL1        0.0839
      2 C         142.6891  144.1838  163.6734 C.ar    1  UNL1        0.0192
      3 C         143.1814  143.3938  164.8496 C.ar    1  UNL1        0.0030
      4 C         142.3962  142.2146  165.3427 C.ar    1  UNL1        0.0174
      5 C         142.8886  141.4246  166.5189 C.ar    1  UNL1       -0.0027
      6 C         142.1034  140.2454  167.0120 C.ar    1  UNL1       -0.0207
      7 C         140.8260  139.8563  166.3288 C.ar    1  UNL1       -0.0027
      8 C         140.3337  140.6463  165.1526 C.ar    1  UNL1        0.0188
      9 C         141.1189  141.8254  164.6595 C.ar    1  UNL1        0.0812
     10 N         140.6266  142.6155  163.4833 N.ar    1  UNL1       -0.2453
     11 N         140.6247  145.4185  159.5538 N.ar    1  UNL1       -0.2162
     12 N         139.6991  146.1821  160.4540 N.ar    1  UNL1       -0.1624
     13 C         139.8813  145.6667  161.8508 C.ar    1  UNL1        0.1232
     14 C         140.9194  144.5847  161.8140 C.ar    1  UNL1        0.0522
     15 C         141.3788  144.4313  160.3943 C.ar    1  UNL1        0.0655
     16 C         142.4112  143.4610  159.9017 C.3     1  UNL1        0.0523
     17 C         139.0464  147.6288  155.1240 C.3     1  UNL1        0.0521
     18 C         139.9813  146.7140  155.8582 C.ar    1  UNL1        0.0610
     19 C         141.0619  145.9894  155.1116 C.ar    1  UNL1        0.0187
     20 C         141.9968  145.0746  155.8458 C.ar    1  UNL1        0.0756
     21 C         141.8511  144.8843  157.3265 C.ar    1  UNL1        0.0427
     22 C         140.7704  145.6088  158.0731 C.ar    1  UNL1        0.1629
     23 N         139.8355  146.5237  157.3389 N.ar    1  UNL1       -0.2309
     24 C         143.0774  144.3500  155.0993 C.3     1  UNL1        0.4187
     25 F         144.1580  143.6255  154.3528 F       1  UNL1       -0.1659
     26 F         143.1411  145.4705  154.1040 F       1  UNL1       -0.1659
     27 F         143.0137  143.2295  156.0946 F       1  UNL1       -0.1659
     28 C         142.5957  139.4554  168.1882 C.3     1  UNL1        0.0437
     29 C         142.4919  140.0262  169.5715 C.3     1  UNL1        0.0768
     30 N         141.7736  141.3239  169.7955 N.3     1  UNL1       -0.2737
     31 C         142.4162  142.6658  169.9858 C.3     1  UNL1        0.0721
     32 C         141.3265  143.6788  170.1763 C.3     1  UNL1        0.0187
     33 C         140.0103  142.9628  170.1038 C.3     1  UNL1        0.0174
     34 C         140.2867  141.5074  169.8684 C.3     1  UNL1        0.0576
     35 C         139.2570  140.4255  169.7302 C.3     1  UNL1        0.0173
@<TRIPOS>BOND
     1    17    18    1
     2    18    19   ar
     3    19    20   ar
     4    20    24    1
     5    24    25    1
     6    24    26    1
     7    24    27    1
     8    20    21   ar
     9    21    22   ar
    10    22    11    1
    11    11    12   ar
    12    12    13   ar
    13    13    14   ar
    14    14     1    1
    15     1     2   ar
    16     2     3   ar
    17     3     4   ar
    18     4     5   ar
    19     5     6   ar
    20     6    28    1
    21    28    29    1
    22    29    30    1
    23    30    31    1
    24    31    32    1
    25    32    33    1
    26    33    34    1
    27    34    35    1
    28     6     7   ar
    29     7     8   ar
    30     8     9   ar
    31     9    10   ar
    32    14    15   ar
    33    15    16    1
    34    22    23   ar
    35    23    18   ar
    36    15    11   ar
    37    10     1   ar
    38     9     4   ar
    39    34    30    1
@<TRIPOS>MOLECULE
*****
 35 39 0 0 0
SMALL
GASTEIGER

@<TRIPOS>ATOM
      1 C         139.8446  144.1117  160.7984 C.ar    1  UNL1        0.0839
      2 C         140.9849  145.0836  160.7274 C.ar    1  UNL1        0.0192
      3 C         141.5541  145.4760  159.3963 C.ar    1  UNL1        0.0030
      4 C         140.9830  144.8966  158.1361 C.ar    1  UNL1        0.0174
      5 C         141.5522  145.2890  156.8049 C.ar    1  UNL1       -0.0027
      6 C         140.9811  144.7096  155.5448 C.ar    1  UNL1       -0.0207
      7 C         139.8407  143.7377  155.6158 C.ar    1  UNL1       -0.0027
      8 C         139.2715  143.3453  156.9469 C.ar    1  UNL1        0.0188
      9 C         139.8426  143.9247  158.2071 C.ar    1  UNL1        0.0812
     10 N         139.2734  143.5323  159.5382 N.ar    1  UNL1       -0.2453
     11 N         138.9354  142.5962  164.2542 N.ar    1  UNL1       -0.2162
     12 N         137.8634  143.6344  164.1019 N.ar    1  UNL1       -0.1624
     13 C         138.0735  144.3284  162.7888 C.ar    1  UNL1        0.1232
     14 C         139.2753  143.7193  162.1296 C.ar    1  UNL1        0.0522
     15 C         139.8080  142.6487  163.0352 C.ar    1  UNL1        0.0655
     16 C         141.0034  141.7826  162.7687 C.3     1  UNL1        0.0523
     17 C         140.8859  141.6019  168.9665 C.3     1  UNL1        0.0521
     18 C         140.0802  141.1713  167.7768 C.ar    1  UNL1        0.0610
     19 C         139.4441  139.8130  167.7534 C.ar    1  UNL1        0.0187
     20 C         138.6384  139.3825  166.5637 C.ar    1  UNL1        0.0756
     21 C         138.4689  140.3102  165.3973 C.ar    1  UNL1        0.0427
     22 C         139.1050  141.6685  165.4206 C.ar    1  UNL1        0.1629
     23 N         139.9106  142.0990  166.6104 N.ar    1  UNL1       -0.2309
     24 C         138.0023  138.0242  166.5404 C.3     1  UNL1        0.4187
     25 F         137.3663  136.6661  166.5171 F       1  UNL1       -0.1659
     26 F         138.8394  137.6526  165.3524 F       1  UNL1       -0.1659
     27 F         137.1653  138.3958  167.7284 F       1  UNL1       -0.1659
     28 C         141.5503  145.1020  154.2136 C.3     1  UNL1        0.0437
     29 C         140.7025  145.8472  153.2256 C.3     1  UNL1        0.0768
     30 N         140.5558  147.3359  153.3356 N.3     1  UNL1       -0.2737
     31 C         141.2483  148.3557  152.4809 C.3     1  UNL1        0.0721
     32 C         140.8113  149.7163  152.9367 C.3     1  UNL1        0.0187
     33 C         139.8486  149.5374  154.0731 C.3     1  UNL1        0.0174
     34 C         139.6907  148.0662  154.3196 C.3     1  UNL1        0.0576
     35 C         138.8205  147.4361  155.3664 C.3     1  UNL1        0.0173
@<TRIPOS>BOND
     1    17    18    1
     2    18    19   ar
     3    19    20   ar
     4    20    24    1
     5    24    25    1
     6    24    26    1
     7    24    27    1
     8    20    21   ar
     9    21    22   ar
    10    22    11    1
    11    11    12   ar
    12    12    13   ar
    13    13    14   ar
    14    14     1    1
    15     1     2   ar
    16     2     3   ar
    17     3     4   ar
    18     4     5   ar
    19     5     6   ar
    20     6    28    1
    21    28    29    1
    22    29    30    1
    23    30    31    1
    24    31    32    1
    25    32    33    1
    26    33    34    1
    27    34    35    1
    28     6     7   ar
    29     7     8   ar
    30     8     9   ar
    31     9    10   ar
    32    14    15   ar
    33    15    16    1
    34    22    23   ar
    35    23    18   ar
    36    15    11   ar
    37    10     1   ar
    38     9     4   ar
    39    34    30    1
@<TRIPOS>MOLECULE
*****
 35 39 0 0 0
SMALL
GASTEIGER

@<TRIPOS>ATOM
      1 C         139.8444  138.8486  162.1494 C.ar    1  UNL1        0.0839
      2 C         139.1847  137.6474  162.7593 C.ar    1  UNL1        0.0192
      3 C         138.8844  137.6219  164.2286 C.ar    1  UNL1        0.0030
      4 C         139.2438  138.7975  165.0881 C.ar    1  UNL1        0.0174
      5 C         138.9435  138.7719  166.5576 C.ar    1  UNL1       -0.0027
      6 C         139.3028  139.9476  167.4171 C.ar    1  UNL1       -0.0207
      7 C         139.9625  141.1488  166.8071 C.ar    1  UNL1       -0.0027
      8 C         140.2628  141.1743  165.3377 C.ar    1  UNL1        0.0188
      9 C         139.9034  139.9987  164.4782 C.ar    1  UNL1        0.0812
     10 N         140.2037  140.0242  163.0089 N.ar    1  UNL1       -0.2453
     11 N         141.2762  138.6015  158.5501 N.ar    1  UNL1       -0.2162
     12 N         139.9376  139.2254  158.2874 N.ar    1  UNL1       -0.1624
     13 C         139.2384  139.3939  159.6037 C.ar    1  UNL1        0.1232
     14 C         140.1447  138.8741  160.6799 C.ar    1  UNL1        0.0522
     15 C         141.4041  138.3844  160.0288 C.ar    1  UNL1        0.0655
     16 C         142.5843  137.7831  160.7327 C.3     1  UNL1        0.0523
     17 C         143.7263  135.0532  155.6507 C.3     1  UNL1        0.0521
     18 C         143.5310  136.4813  156.0661 C.ar    1  UNL1        0.0610
     19 C         144.3654  137.5633  155.4471 C.ar    1  UNL1        0.0187
     20 C         144.1701  138.9913  155.8625 C.ar    1  UNL1        0.0756
     21 C         143.1403  139.3374  156.8968 C.ar    1  UNL1        0.0427
     22 C         142.3059  138.2554  157.5158 C.ar    1  UNL1        0.1629
     23 N         142.5012  136.8274  157.1004 N.ar    1  UNL1       -0.2309
     24 C         145.0045  140.0733  155.2435 C.3     1  UNL1        0.4187
     25 F         145.8389  141.1552  154.6246 F       1  UNL1       -0.1659
     26 F         145.0116  140.8140  156.5479 F       1  UNL1       -0.1659
     27 F         144.9974  139.3326  153.9391 F       1  UNL1       -0.1659
     28 C         139.0025  139.9221  168.8865 C.3     1  UNL1        0.0437
     29 C         139.4221  141.0687  169.7578 C.3     1  UNL1        0.0768
     30 N         140.8674  141.4627  169.8345 N.3     1  UNL1       -0.2737
     31 C         142.0373  140.5241  169.8528 C.3     1  UNL1        0.0721
     32 C         143.2895  141.3457  169.9360 C.3     1  UNL1        0.0187
     33 C         142.8935  142.7921  169.9692 C.3     1  UNL1        0.0174
     34 C         141.3965  142.8644  169.9065 C.3     1  UNL1        0.0576
     35 C         140.5733  144.1183  169.9143 C.3     1  UNL1        0.0173
@<TRIPOS>BOND
     1    17    18    1
     2    18    19   ar
     3    19    20   ar
     4    20    24    1
     5    24    25    1
     6    24    26    1
     7    24    27    1
     8    20    21   ar
     9    21    22   ar
    10    22    11    1
    11    11    12   ar
    12    12    13   ar
    13    13    14   ar
    14    14     1    1
    15     1     2   ar
    16     2     3   ar
    17     3     4   ar
    18     4     5   ar
    19     5     6   ar
    20     6    28    1
    21    28    29    1
    22    29    30    1
    23    30    31    1
    24    31    32    1
    25    32    33    1
    26    33    34    1
    27    34    35    1
    28     6     7   ar
    29     7     8   ar
    30     8     9   ar
    31     9    10   ar
    32    14    15   ar
    33    15    16    1
    34    22    23   ar
    35    23    18   ar
    36    15    11   ar
    37    10     1   ar
    38     9     4   ar
    39    34    30    1
@<TRIPOS>MOLECULE
*****
 35 39 0 0 0
SMALL
GASTEIGER

@<TRIPOS>ATOM
      1 C         142.2216  140.2689  161.6613 C.ar    1  UNL1        0.0839
      2 C         143.5406  139.6781  161.2602 C.ar    1  UNL1        0.0192
      3 C         143.6373  138.8247  160.0304 C.ar    1  UNL1        0.0030
      4 C         142.4148  138.5621  159.2018 C.ar    1  UNL1        0.0174
      5 C         142.5115  137.7086  157.9720 C.ar    1  UNL1       -0.0027
      6 C         141.2891  137.4461  157.1433 C.ar    1  UNL1       -0.0207
      7 C         139.9699  138.0370  157.5444 C.ar    1  UNL1       -0.0027
      8 C         139.8733  138.8904  158.7742 C.ar    1  UNL1        0.0188
      9 C         141.0958  139.1529  159.6029 C.ar    1  UNL1        0.0812
     10 N         140.9991  140.0064  160.8326 N.ar    1  UNL1       -0.2453
     11 N         141.9730  141.8193  165.2110 N.ar    1  UNL1       -0.2162
     12 N         141.9792  143.0519  164.3560 N.ar    1  UNL1       -0.1624
     13 C         142.0731  142.6212  162.9223 C.ar    1  UNL1        0.1232
     14 C         142.1249  141.1224  162.8911 C.ar    1  UNL1        0.0522
     15 C         142.0630  140.6268  164.3055 C.ar    1  UNL1        0.0655
     16 C         142.0869  139.1909  164.7385 C.3     1  UNL1        0.0523
     17 C         144.1747  142.5757  169.8563 C.3     1  UNL1        0.0521
     18 C         142.9920  142.1635  169.0310 C.ar    1  UNL1        0.0610
     19 C         141.7273  141.7172  169.7030 C.ar    1  UNL1        0.0187
     20 C         140.5446  141.3049  168.8777 C.ar    1  UNL1        0.0756
     21 C         140.6265  141.3390  167.3803 C.ar    1  UNL1        0.0427
     22 C         141.8911  141.7853  166.7083 C.ar    1  UNL1        0.1629
     23 N         143.0738  142.1975  167.5336 N.ar    1  UNL1       -0.2309
     24 C         139.2800  140.8587  169.5497 C.3     1  UNL1        0.4187
     25 F         138.0154  140.4124  170.2217 F       1  UNL1       -0.1659
     26 F         139.2416  139.6438  168.6707 F       1  UNL1       -0.1659
     27 F         139.3183  142.0736  170.4287 F       1  UNL1       -0.1659
     28 C         141.3857  136.5927  155.9136 C.3     1  UNL1        0.0437
     29 C         142.7072  136.0119  155.5056 C.3     1  UNL1        0.0768
     30 N         142.8617  134.5269  155.3621 N.3     1  UNL1       -0.2737
     31 C         142.5802  133.7265  154.1251 C.3     1  UNL1        0.0721
     32 C         142.8693  132.2864  154.4289 C.3     1  UNL1        0.0187
     33 C         143.3294  132.1966  155.8539 C.3     1  UNL1        0.0174
     34 C         143.3247  133.5813  156.4306 C.3     1  UNL1        0.0576
     35 C         143.7145  133.9549  157.8300 C.3     1  UNL1        0.0173
@<TRIPOS>BOND
     1    17    18    1
     2    18    19   ar
     3    19    20   ar
     4    20    24    1
     5    24    25    1
     6    24    26    1
     7    24    27    1
     8    20    21   ar
     9    21    22   ar
    10    22    11    1
    11    11    12   ar
    12    12    13   ar
    13    13    14   ar
    14    14     1    1
    15     1     2   ar
    16     2     3   ar
    17     3     4   ar
    18     4     5   ar
    19     5     6   ar
    20     6    28    1
    21    28    29    1
    22    29    30    1
    23    30    31    1
    24    31    32    1
    25    32    33    1
    26    33    34    1
    27    34    35    1
    28     6     7   ar
    29     7     8   ar
    30     8     9   ar
    31     9    10   ar
    32    14    15   ar
    33    15    16    1
    34    22    23   ar
    35    23    18   ar
    36    15    11   ar
    37    10     1   ar
    38     9     4   ar
    39    34    30    1
