@<TRIPOS>MOLECULE
*****
 31 34 0 0 0
SMALL
GASTEIGER

@<TRIPOS>ATOM
      1 N         141.8486  139.8571  161.1992 N.am    1  UNL1       -0.2681
      2 C         142.4197  139.0808  162.3487 C.2     1  UNL1        0.3078
      3 O         143.4023  137.9765  162.0934 O.2     1  UNL1       -0.2522
      4 N         142.0082  139.4087  163.7533 N.am    1  UNL1       -0.2605
      5 C         142.5793  138.6324  164.9028 C.3     1  UNL1        0.1164
      6 C         142.1678  138.9604  166.3074 C.3     1  UNL1        0.1137
      7 N         141.1851  140.0647  166.5627 N.pl3   1  UNL1       -0.2901
      8 C         140.6140  140.8410  165.4132 C.3     1  UNL1        0.0941
      9 C         139.6315  141.9452  165.6685 C.3     1  UNL1        0.0233
     10 C         141.0256  140.5129  164.0085 C.3     1  UNL1        0.1147
     11 H         141.2037  140.5818  161.3667 H       1  UNL1        0.1564
     12 C         140.7736  140.3926  167.9673 C.ar    1  UNL1        0.1544
     13 N         139.4711  139.8798  168.5064 N.ar    1  UNL1       -0.1974
     14 C         139.0597  140.2078  169.9110 C.ar    1  UNL1        0.2154
     15 N         137.7571  139.6950  170.4500 N.pl3   1  UNL1       -0.3274
     16 N         139.9506  141.0485  170.7767 N.ar    1  UNL1       -0.2057
     17 C         141.2531  141.5612  170.2377 C.ar    1  UNL1        0.1353
     18 S         142.3304  142.4058  170.8511 S.2     1  UNL1       -0.0453
     19 C         143.4077  142.5998  169.8256 C.ar    1  UNL1        0.1360
     20 N         142.9962  141.8752  168.5783 N.ar    1  UNL1       -0.2319
     21 C         141.6646  141.2333  168.8330 C.ar    1  UNL1        0.1372
     22 H         137.1723  139.1432  169.8819 H       1  UNL1        0.1452
     23 H         137.4870  139.9102  171.3720 H       1  UNL1        0.1452
     24 C         143.0831  138.8732  156.9852 C.ar    1  UNL1        0.1388
     25 C         142.0233  138.0587  157.6658 C.ar    1  UNL1        0.0382
     26 C         141.6117  138.3866  159.0704 C.ar    1  UNL1        0.0178
     27 C         142.2601  139.5291  159.7946 C.ar    1  UNL1        0.0518
     28 C         143.3200  140.3437  159.1140 C.ar    1  UNL1        0.0178
     29 C         143.7315  140.0157  157.7093 C.ar    1  UNL1        0.0382
     30 C         144.8834  138.8642  155.1120 C.3     1  UNL1        0.2525
     31 O         143.4946  138.5452  155.5805 O.3     1  UNL1       -0.4714
@<TRIPOS>BOND
     1    30    31    1
     2    31    24    1
     3    24    25   ar
     4    25    26   ar
     5    26    27   ar
     6    27     1    1
     7     1     2   am
     8     2     3    2
     9     2     4   am
    10     4     5    1
    11     5     6    1
    12     6     7    1
    13     7    12    1
    14    12    13   ar
    15    13    14   ar
    16    14    15    1
    17    14    16   ar
    18    16    17   ar
    19    17    18   ar
    20    18    19   ar
    21    19    20   ar
    22    20    21   ar
    23     7     8    1
    24     8     9    1
    25     8    10    1
    26    27    28   ar
    27    28    29   ar
    28    29    24   ar
    29    10     4    1
    30    21    12   ar
    31    21    17   ar
    32     1    11    1
    33    15    22    1
    34    15    23    1
@<TRIPOS>MOLECULE
*****
 31 34 0 0 0
SMALL
GASTEIGER

@<TRIPOS>ATOM
      1 N         140.9002  143.5343  161.0153 N.am    1  UNL1       -0.2681
      2 C         140.0702  143.9120  162.2064 C.2     1  UNL1        0.3078
      3 O         138.8114  144.7066  162.0217 O.2     1  UNL1       -0.2522
      4 N         140.4990  143.4953  163.5819 N.am    1  UNL1       -0.2605
      5 C         139.6690  143.8730  164.7730 C.3     1  UNL1        0.1164
      6 C         140.0978  143.4563  166.1486 C.3     1  UNL1        0.1137
      7 N         141.3567  142.6617  166.3333 N.pl3   1  UNL1       -0.2901
      8 C         142.1867  142.2839  165.1423 C.3     1  UNL1        0.0941
      9 C         143.4455  141.4894  165.3270 C.3     1  UNL1        0.0233
     10 C         141.7578  142.7008  163.7666 C.3     1  UNL1        0.1147
     11 H         141.7264  143.0128  161.1365 H       1  UNL1        0.1564
     12 C         141.7855  142.2449  167.7089 C.ar    1  UNL1        0.1544
     13 N         143.0985  142.7161  168.2602 N.ar    1  UNL1       -0.1974
     14 C         143.5274  142.2994  169.6357 C.ar    1  UNL1        0.2154
     15 N         144.8405  142.7706  170.1870 N.pl3   1  UNL1       -0.3274
     16 N         142.6431  141.4114  170.4602 N.ar    1  UNL1       -0.2057
     17 C         141.3301  140.9402  169.9090 C.ar    1  UNL1        0.1353
     18 S         140.2561  140.0651  170.4841 S.2     1  UNL1       -0.0453
     19 C         139.1636  139.9410  169.4639 C.ar    1  UNL1        0.1360
     20 N         139.5623  140.7394  168.2582 N.ar    1  UNL1       -0.2319
     21 C         140.9013  141.3570  168.5333 C.ar    1  UNL1        0.1372
     22 H         145.4208  143.3534  169.6459 H       1  UNL1        0.1452
     23 H         145.1219  142.4971  171.0899 H       1  UNL1        0.1452
     24 C         139.6137  144.7846  156.8884 C.ar    1  UNL1        0.1388
     25 C         140.4114  145.7250  157.7425 C.ar    1  UNL1        0.0382
     26 C         140.8402  145.3083  159.1181 C.ar    1  UNL1        0.0178
     27 C         140.4714  143.9511  159.6398 C.ar    1  UNL1        0.0518
     28 C         139.6736  143.0107  158.7857 C.ar    1  UNL1        0.0178
     29 C         139.2448  143.4275  157.4100 C.ar    1  UNL1        0.0382
     30 C         137.7746  144.9609  155.0617 C.3     1  UNL1        0.2525
     31 O         139.1848  145.2014  155.5128 O.3     1  UNL1       -0.4714
@<TRIPOS>BOND
     1    30    31    1
     2    31    24    1
     3    24    25   ar
     4    25    26   ar
     5    26    27   ar
     6    27     1    1
     7     1     2   am
     8     2     3    2
     9     2     4   am
    10     4     5    1
    11     5     6    1
    12     6     7    1
    13     7    12    1
    14    12    13   ar
    15    13    14   ar
    16    14    15    1
    17    14    16   ar
    18    16    17   ar
    19    17    18   ar
    20    18    19   ar
    21    19    20   ar
    22    20    21   ar
    23     7     8    1
    24     8     9    1
    25     8    10    1
    26    27    28   ar
    27    28    29   ar
    28    29    24   ar
    29    10     4    1
    30    21    12   ar
    31    21    17   ar
    32     1    11    1
    33    15    22    1
    34    15    23    1
@<TRIPOS>MOLECULE
*****
 31 34 0 0 0
SMALL
GASTEIGER

@<TRIPOS>ATOM
      1 N         139.5768  143.7897  159.6147 N.am    1  UNL1       -0.2681
      2 C         140.3385  142.6015  160.1226 C.2     1  UNL1        0.3078
      3 O         141.3842  141.9571  159.2617 O.2     1  UNL1       -0.2522
      4 N         140.0545  142.0577  161.4913 N.am    1  UNL1       -0.2605
      5 C         140.8162  140.8694  161.9993 C.3     1  UNL1        0.1164
      6 C         140.5322  140.3256  163.3680 C.3     1  UNL1        0.1137
      7 N         139.4864  140.9701  164.2290 N.pl3   1  UNL1       -0.2901
      8 C         138.7247  142.1583  163.7211 C.3     1  UNL1        0.0941
      9 C         137.6790  142.8027  164.5821 C.3     1  UNL1        0.0233
     10 C         139.0088  142.7021  162.3523 C.3     1  UNL1        0.1147
     11 H         138.8905  144.2127  160.1797 H       1  UNL1        0.1564
     12 C         139.2024  140.4262  165.5978 C.ar    1  UNL1        0.1544
     13 N         138.2680  139.2647  165.7643 N.ar    1  UNL1       -0.1974
     14 C         137.9840  138.7209  167.1330 C.ar    1  UNL1        0.2154
     15 N         137.0496  137.5593  167.2995 N.pl3   1  UNL1       -0.3274
     16 N         138.6344  139.3386  168.3354 N.ar    1  UNL1       -0.2057
     17 C         139.5688  140.5001  168.1688 C.ar    1  UNL1        0.1353
     18 S         140.3512  141.3090  169.1606 S.2     1  UNL1       -0.0453
     19 C         141.1187  142.3528  168.4047 C.ar    1  UNL1        0.1360
     20 N         140.8107  142.1890  166.9458 N.ar    1  UNL1       -0.2319
     21 C         139.8528  141.0440  166.8000 C.ar    1  UNL1        0.1372
     22 H         136.6227  137.1539  166.5104 H       1  UNL1        0.1452
     23 H         136.8632  137.2023  168.1979 H       1  UNL1        0.1452
     24 C         140.4289  145.4212  155.5083 C.ar    1  UNL1        0.1388
     25 C         139.5553  144.2125  155.6688 C.ar    1  UNL1        0.0382
     26 C         139.2712  143.6686  157.0375 C.ar    1  UNL1        0.0178
     27 C         139.8608  144.3335  158.2460 C.ar    1  UNL1        0.0518
     28 C         140.7346  145.5423  158.0855 C.ar    1  UNL1        0.0178
     29 C         141.0186  146.0861  156.7167 C.ar    1  UNL1        0.0382
     30 C         140.4952  147.4207  153.8508 C.3     1  UNL1        0.2525
     31 O         140.7129  145.9649  154.1395 O.3     1  UNL1       -0.4714
@<TRIPOS>BOND
     1    30    31    1
     2    31    24    1
     3    24    25   ar
     4    25    26   ar
     5    26    27   ar
     6    27     1    1
     7     1     2   am
     8     2     3    2
     9     2     4   am
    10     4     5    1
    11     5     6    1
    12     6     7    1
    13     7    12    1
    14    12    13   ar
    15    13    14   ar
    16    14    15    1
    17    14    16   ar
    18    16    17   ar
    19    17    18   ar
    20    18    19   ar
    21    19    20   ar
    22    20    21   ar
    23     7     8    1
    24     8     9    1
    25     8    10    1
    26    27    28   ar
    27    28    29   ar
    28    29    24   ar
    29    10     4    1
    30    21    12   ar
    31    21    17   ar
    32     1    11    1
    33    15    22    1
    34    15    23    1
@<TRIPOS>MOLECULE
*****
 31 34 0 0 0
SMALL
GASTEIGER

@<TRIPOS>ATOM
      1 N         141.7640  143.1399  161.4300 N.am    1  UNL1       -0.2681
      2 C         142.7883  143.4271  162.4877 C.2     1  UNL1        0.3078
      3 O         143.9649  144.3029  162.1739 O.2     1  UNL1       -0.2522
      4 N         142.6358  142.8387  163.8589 N.am    1  UNL1       -0.2605
      5 C         143.6601  143.1259  164.9165 C.3     1  UNL1        0.1164
      6 C         143.5076  142.5374  166.2877 C.3     1  UNL1        0.1137
      7 N         142.3309  141.6616  166.6015 N.pl3   1  UNL1       -0.2901
      8 C         141.3066  141.3743  165.5439 C.3     1  UNL1        0.0941
      9 C         140.1300  140.4985  165.8577 C.3     1  UNL1        0.0233
     10 C         141.4592  141.9629  164.1726 C.3     1  UNL1        0.1147
     11 H         140.9917  142.5651  161.6359 H       1  UNL1        0.1564
     12 C         142.1784  141.0731  167.9728 C.ar    1  UNL1        0.1544
     13 N         142.8154  139.7546  168.2981 N.ar    1  UNL1       -0.1974
     14 C         142.6630  139.1661  169.6693 C.ar    1  UNL1        0.2154
     15 N         143.3000  137.8476  169.9947 N.pl3   1  UNL1       -0.3274
     16 N         141.8736  139.8961  170.7154 N.ar    1  UNL1       -0.2057
     17 C         141.2366  141.2146  170.3900 C.ar    1  UNL1        0.1353
     18 S         140.4063  142.1575  171.2094 S.2     1  UNL1       -0.0453
     19 C         140.0456  143.3287  170.3446 C.ar    1  UNL1        0.1360
     20 N         140.6529  143.1097  168.9906 N.ar    1  UNL1       -0.2319
     21 C         141.3890  141.8031  169.0187 C.ar    1  UNL1        0.1372
     22 H         143.8181  137.3684  169.3082 H       1  UNL1        0.1452
     23 H         143.1999  137.4613  170.8947 H       1  UNL1        0.1452
     24 C         142.2214  144.9054  157.3163 C.ar    1  UNL1        0.1388
     25 C         142.9598  143.6517  157.6807 C.ar    1  UNL1        0.0382
     26 C         142.8074  143.0631  159.0519 C.ar    1  UNL1        0.0178
     27 C         141.9165  143.7284  160.0588 C.ar    1  UNL1        0.0518
     28 C         141.1780  144.9822  159.6944 C.ar    1  UNL1        0.0178
     29 C         141.3305  145.5707  158.3231 C.ar    1  UNL1        0.0382
     30 C         142.6173  144.5977  154.7670 C.3     1  UNL1        0.2525
     31 O         142.3739  145.4939  155.9450 O.3     1  UNL1       -0.4714
@<TRIPOS>BOND
     1    30    31    1
     2    31    24    1
     3    24    25   ar
     4    25    26   ar
     5    26    27   ar
     6    27     1    1
     7     1     2   am
     8     2     3    2
     9     2     4   am
    10     4     5    1
    11     5     6    1
    12     6     7    1
    13     7    12    1
    14    12    13   ar
    15    13    14   ar
    16    14    15    1
    17    14    16   ar
    18    16    17   ar
    19    17    18   ar
    20    18    19   ar
    21    19    20   ar
    22    20    21   ar
    23     7     8    1
    24     8     9    1
    25     8    10    1
    26    27    28   ar
    27    28    29   ar
    28    29    24   ar
    29    10     4    1
    30    21    12   ar
    31    21    17   ar
    32     1    11    1
    33    15    22    1
    34    15    23    1
@<TRIPOS>MOLECULE
*****
 31 34 0 0 0
SMALL
GASTEIGER

@<TRIPOS>ATOM
      1 N         140.1748  140.3890  161.2208 N.am    1  UNL1       -0.2681
      2 C         139.2852  140.0137  162.3689 C.2     1  UNL1        0.3078
      3 O         138.0533  139.1932  162.1259 O.2     1  UNL1       -0.2522
      4 N         139.6276  140.4588  163.7597 N.am    1  UNL1       -0.2605
      5 C         138.7381  140.0835  164.9077 C.3     1  UNL1        0.1164
      6 C         139.0805  140.5286  166.2985 C.3     1  UNL1        0.1137
      7 N         140.3125  141.3492  166.5415 N.pl3   1  UNL1       -0.2901
      8 C         141.2021  141.7245  165.3935 C.3     1  UNL1        0.0941
      9 C         142.4340  142.5450  165.6365 C.3     1  UNL1        0.0233
     10 C         140.8596  141.2793  164.0026 C.3     1  UNL1        0.1147
     11 H         140.9834  140.9275  161.3803 H       1  UNL1        0.1564
     12 C         140.6549  141.7943  167.9324 C.ar    1  UNL1        0.1544
     13 N         140.2080  143.1405  168.4204 N.ar    1  UNL1       -0.1974
     14 C         140.5504  143.5856  169.8112 C.ar    1  UNL1        0.2154
     15 N         140.1034  144.9318  170.2993 N.pl3   1  UNL1       -0.3274
     16 N         141.3398  142.6847  170.7142 N.ar    1  UNL1       -0.2057
     17 C         141.7867  141.3386  170.2262 C.ar    1  UNL1        0.1353
     18 S         142.5714  140.2423  170.8838 S.2     1  UNL1       -0.0453
     19 C         142.7139  139.1196  169.8993 C.ar    1  UNL1        0.1360
     20 N         142.0174  139.5220  168.6332 N.ar    1  UNL1       -0.2319
     21 C         141.4443  140.8934  168.8353 C.ar    1  UNL1        0.1372
     22 H         139.5853  145.5231  169.7067 H       1  UNL1        0.1452
     23 H         140.3281  145.2240  171.2122 H       1  UNL1        0.1452
     24 C         139.1475  139.0535  157.0482 C.ar    1  UNL1        0.1388
     25 C         140.0739  138.2297  157.8926 C.ar    1  UNL1        0.0382
     26 C         140.4164  138.6748  159.2835 C.ar    1  UNL1        0.0178
     27 C         139.8324  139.9438  159.8300 C.ar    1  UNL1        0.0518
     28 C         138.9058  140.7676  158.9856 C.ar    1  UNL1        0.0178
     29 C         138.5634  140.3224  157.5947 C.ar    1  UNL1        0.0382
     30 C         138.8914  137.1560  155.2921 C.3     1  UNL1        0.2525
     31 O         138.8050  138.6083  155.6573 O.3     1  UNL1       -0.4714
@<TRIPOS>BOND
     1    30    31    1
     2    31    24    1
     3    24    25   ar
     4    25    26   ar
     5    26    27   ar
     6    27     1    1
     7     1     2   am
     8     2     3    2
     9     2     4   am
    10     4     5    1
    11     5     6    1
    12     6     7    1
    13     7    12    1
    14    12    13   ar
    15    13    14   ar
    16    14    15    1
    17    14    16   ar
    18    16    17   ar
    19    17    18   ar
    20    18    19   ar
    21    19    20   ar
    22    20    21   ar
    23     7     8    1
    24     8     9    1
    25     8    10    1
    26    27    28   ar
    27    28    29   ar
    28    29    24   ar
    29    10     4    1
    30    21    12   ar
    31    21    17   ar
    32     1    11    1
    33    15    22    1
    34    15    23    1
@<TRIPOS>MOLECULE
*****
 31 34 0 0 0
SMALL
GASTEIGER

@<TRIPOS>ATOM
      1 N         139.8354  139.2187  163.5446 N.am    1  UNL1       -0.2681
      2 C         141.0772  138.5037  163.1010 C.2     1  UNL1        0.3078
      3 O         142.0212  137.9378  164.1200 O.2     1  UNL1       -0.2522
      4 N         141.3748  138.3546  161.6385 N.am    1  UNL1       -0.2605
      5 C         142.6166  137.6395  161.1948 C.3     1  UNL1        0.1164
      6 C         142.9142  137.4904  159.7323 C.3     1  UNL1        0.1137
      7 N         141.9700  138.0563  158.7132 N.pl3   1  UNL1       -0.2901
      8 C         140.7283  138.7714  159.1568 C.3     1  UNL1        0.0941
      9 C         139.7842  139.3373  158.1378 C.3     1  UNL1        0.0233
     10 C         140.4307  138.9205  160.6195 C.3     1  UNL1        0.1147
     11 H         139.2157  139.5902  162.8759 H       1  UNL1        0.1564
     12 C         142.2677  137.9072  157.2507 C.ar    1  UNL1        0.1544
     13 N         141.4965  136.9204  156.4252 N.ar    1  UNL1       -0.1974
     14 C         141.7941  136.7712  154.9627 C.ar    1  UNL1        0.2154
     15 N         141.0229  135.7843  154.1371 N.pl3   1  UNL1       -0.3274
     16 N         142.8630  137.6089  154.3255 N.ar    1  UNL1       -0.2057
     17 C         143.6341  138.5957  155.1510 C.ar    1  UNL1        0.1353
     18 S         144.7364  139.5515  154.8024 S.2     1  UNL1       -0.0453
     19 C         145.1200  140.2913  156.0496 C.ar    1  UNL1        0.1360
     20 N         144.2548  139.7928  157.1690 N.ar    1  UNL1       -0.2319
     21 C         143.3365  138.7449  156.6136 C.ar    1  UNL1        0.1372
     22 H         140.3214  135.2345  154.5553 H       1  UNL1        0.1452
     23 H         141.2183  135.6864  153.1772 H       1  UNL1        0.1452
     24 C         138.9425  139.6661  167.9324 C.ar    1  UNL1        0.1388
     25 C         138.0827  138.7822  167.0783 C.ar    1  UNL1        0.0382
     26 C         138.3803  138.6330  165.6158 C.ar    1  UNL1        0.0178
     27 C         139.5377  139.3678  165.0072 C.ar    1  UNL1        0.0518
     28 C         140.3976  140.2519  165.8612 C.ar    1  UNL1        0.0178
     29 C         140.0999  140.4010  167.3238 C.ar    1  UNL1        0.0382
     30 C         139.6899  140.3634  170.3210 C.3     1  UNL1        0.2525
     31 O         138.6448  139.8152  169.3950 O.3     1  UNL1       -0.4714
@<TRIPOS>BOND
     1    30    31    1
     2    31    24    1
     3    24    25   ar
     4    25    26   ar
     5    26    27   ar
     6    27     1    1
     7     1     2   am
     8     2     3    2
     9     2     4   am
    10     4     5    1
    11     5     6    1
    12     6     7    1
    13     7    12    1
    14    12    13   ar
    15    13    14   ar
    16    14    15    1
    17    14    16   ar
    18    16    17   ar
    19    17    18   ar
    20    18    19   ar
    21    19    20   ar
    22    20    21   ar
    23     7     8    1
    24     8     9    1
    25     8    10    1
    26    27    28   ar
    27    28    29   ar
    28    29    24   ar
    29    10     4    1
    30    21    12   ar
    31    21    17   ar
    32     1    11    1
    33    15    22    1
    34    15    23    1
@<TRIPOS>MOLECULE
*****
 31 34 0 0 0
SMALL
GASTEIGER

@<TRIPOS>ATOM
      1 N         140.4044  140.3980  164.7522 N.am    1  UNL1       -0.2681
      2 C         141.4291  139.4128  164.2731 C.2     1  UNL1        0.3078
      3 O         142.3009  138.6969  165.2618 O.2     1  UNL1       -0.2522
      4 N         141.5820  139.1435  162.8055 N.am    1  UNL1       -0.2605
      5 C         142.6068  138.1583  162.3265 C.3     1  UNL1        0.1164
      6 C         142.7596  137.8891  160.8589 C.3     1  UNL1        0.1137
      7 N         141.8878  138.6050  159.8701 N.pl3   1  UNL1       -0.2901
      8 C         140.8631  139.5902  160.3491 C.3     1  UNL1        0.0941
      9 C         139.9914  140.3060  159.3604 C.3     1  UNL1        0.0233
     10 C         140.7103  139.8594  161.8168 C.3     1  UNL1        0.1147
     11 H         139.8322  140.8679  164.1033 H       1  UNL1        0.1564
     12 C         142.0408  138.3357  158.4024 C.ar    1  UNL1        0.1544
     13 N         141.1409  137.3459  157.7238 N.ar    1  UNL1       -0.1974
     14 C         141.2938  137.0766  156.2562 C.ar    1  UNL1        0.2154
     15 N         140.3940  136.0867  155.5775 N.pl3   1  UNL1       -0.3274
     16 N         142.3466  137.7971  155.4670 N.ar    1  UNL1       -0.2057
     17 C         143.2464  138.7869  156.1457 C.ar    1  UNL1        0.1353
     18 S         144.3658  139.6428  155.6315 S.2     1  UNL1       -0.0453
     19 C         144.9047  140.4410  156.7814 C.ar    1  UNL1        0.1360
     20 N         144.1184  140.0785  158.0063 N.ar    1  UNL1       -0.2319
     21 C         143.0935  139.0562  157.6134 C.ar    1  UNL1        0.1372
     22 H         139.7030  135.6138  156.0954 H       1  UNL1        0.1452
     23 H         140.4943  135.9099  154.6142 H       1  UNL1        0.1452
     24 C         139.9457  141.2058  169.1552 C.ar    1  UNL1        0.1388
     25 C         140.7529  142.1385  168.3017 C.ar    1  UNL1        0.0382
     26 C         140.9058  141.8693  166.8340 C.ar    1  UNL1        0.0178
     27 C         140.2515  140.6673  166.2198 C.ar    1  UNL1        0.0518
     28 C         139.4443  139.7346  167.0734 C.ar    1  UNL1        0.0178
     29 C         139.2914  140.0039  168.5411 C.ar    1  UNL1        0.0382
     30 C         140.9981  141.7959  171.4561 C.3     1  UNL1        0.2525
     31 O         139.7928  141.4752  170.6229 O.3     1  UNL1       -0.4714
@<TRIPOS>BOND
     1    30    31    1
     2    31    24    1
     3    24    25   ar
     4    25    26   ar
     5    26    27   ar
     6    27     1    1
     7     1     2   am
     8     2     3    2
     9     2     4   am
    10     4     5    1
    11     5     6    1
    12     6     7    1
    13     7    12    1
    14    12    13   ar
    15    13    14   ar
    16    14    15    1
    17    14    16   ar
    18    16    17   ar
    19    17    18   ar
    20    18    19   ar
    21    19    20   ar
    22    20    21   ar
    23     7     8    1
    24     8     9    1
    25     8    10    1
    26    27    28   ar
    27    28    29   ar
    28    29    24   ar
    29    10     4    1
    30    21    12   ar
    31    21    17   ar
    32     1    11    1
    33    15    22    1
    34    15    23    1
@<TRIPOS>MOLECULE
*****
 31 34 0 0 0
SMALL
GASTEIGER

@<TRIPOS>ATOM
      1 N         140.4230  139.8440  163.8534 N.am    1  UNL1       -0.2681
      2 C         141.2997  138.7477  163.3246 C.2     1  UNL1        0.3078
      3 O         141.7772  137.6611  164.2418 O.2     1  UNL1       -0.2522
      4 N         141.6990  138.7381  161.8789 N.am    1  UNL1       -0.2605
      5 C         142.5758  137.6418  161.3501 C.3     1  UNL1        0.1164
      6 C         142.9750  137.6321  159.9043 C.3     1  UNL1        0.1137
      7 N         142.4975  138.7188  158.9871 N.pl3   1  UNL1       -0.2901
      8 C         141.6207  139.8151  159.5157 C.3     1  UNL1        0.0941
      9 C         141.1433  140.9017  158.5985 C.3     1  UNL1        0.0233
     10 C         141.2215  139.8247  160.9616 C.3     1  UNL1        0.1147
     11 H         140.1096  140.5572  163.2514 H       1  UNL1        0.1564
     12 C         142.8968  138.7092  157.5412 C.ar    1  UNL1        0.1544
     13 N         144.0921  139.4938  157.0880 N.ar    1  UNL1       -0.1974
     14 C         144.4914  139.4842  155.6422 C.ar    1  UNL1        0.2154
     15 N         145.6868  140.2689  155.1890 N.pl3   1  UNL1       -0.3274
     16 N         143.6953  138.6898  154.6495 N.ar    1  UNL1       -0.2057
     17 C         142.5000  137.9052  155.1028 C.ar    1  UNL1        0.1353
     18 S         141.5299  137.0351  154.3597 S.2     1  UNL1       -0.0453
     19 C         140.5311  136.5071  155.3464 C.ar    1  UNL1        0.1360
     20 N         140.8839  137.0508  156.6992 N.ar    1  UNL1       -0.2319
     21 C         142.1007  137.9148  156.5486 C.ar    1  UNL1        0.1372
     22 H         146.2093  140.7903  155.8405 H       1  UNL1        0.1452
     23 H         145.9488  140.2626  154.2400 H       1  UNL1        0.1452
     24 C         139.2252  139.8729  168.1909 C.ar    1  UNL1        0.1388
     25 C         138.3915  139.1326  167.1875 C.ar    1  UNL1        0.0382
     26 C         138.7907  139.1229  165.7417 C.ar    1  UNL1        0.0178
     27 C         140.0237  139.8536  165.2991 C.ar    1  UNL1        0.0518
     28 C         140.8575  140.5940  166.3026 C.ar    1  UNL1        0.0178
     29 C         140.4582  140.6037  167.7484 C.ar    1  UNL1        0.0382
     30 C         139.8468  140.1798  170.6948 C.3     1  UNL1        0.2525
     31 O         138.8259  139.8825  169.6368 O.3     1  UNL1       -0.4714
@<TRIPOS>BOND
     1    30    31    1
     2    31    24    1
     3    24    25   ar
     4    25    26   ar
     5    26    27   ar
     6    27     1    1
     7     1     2   am
     8     2     3    2
     9     2     4   am
    10     4     5    1
    11     5     6    1
    12     6     7    1
    13     7    12    1
    14    12    13   ar
    15    13    14   ar
    16    14    15    1
    17    14    16   ar
    18    16    17   ar
    19    17    18   ar
    20    18    19   ar
    21    19    20   ar
    22    20    21   ar
    23     7     8    1
    24     8     9    1
    25     8    10    1
    26    27    28   ar
    27    28    29   ar
    28    29    24   ar
    29    10     4    1
    30    21    12   ar
    31    21    17   ar
    32     1    11    1
    33    15    22    1
    34    15    23    1
@<TRIPOS>MOLECULE
*****
 31 34 0 0 0
SMALL
GASTEIGER

@<TRIPOS>ATOM
      1 N         142.1488  137.2901  157.7094 N.am    1  UNL1       -0.2681
      2 C         142.9741  138.5355  157.5762 C.2     1  UNL1        0.3078
      3 O         143.9256  138.6852  156.4263 O.2     1  UNL1       -0.2522
      4 N         142.8480  139.6312  158.5928 N.am    1  UNL1       -0.2605
      5 C         143.6734  140.8766  158.4596 C.3     1  UNL1        0.1164
      6 C         143.5472  141.9723  159.4761 C.3     1  UNL1        0.1137
      7 N         142.5957  141.8226  160.6261 N.pl3   1  UNL1       -0.2901
      8 C         141.7703  140.5772  160.7593 C.3     1  UNL1        0.0941
      9 C         140.8188  140.4275  161.9092 C.3     1  UNL1        0.0233
     10 C         141.8965  139.4815  159.7426 C.3     1  UNL1        0.1147
     11 H         141.5242  137.1918  158.4641 H       1  UNL1        0.1564
     12 C         142.4695  142.9183  161.6427 C.ar    1  UNL1        0.1544
     13 N         141.4648  144.0141  161.4436 N.ar    1  UNL1       -0.1974
     14 C         141.3386  145.1097  162.4601 C.ar    1  UNL1        0.2154
     15 N         140.3338  146.2056  162.2610 N.pl3   1  UNL1       -0.3274
     16 N         142.2173  145.1097  163.6759 N.ar    1  UNL1       -0.2057
     17 C         143.2221  144.0139  163.8750 C.ar    1  UNL1        0.1353
     18 S         144.2172  143.7508  164.9661 S.2     1  UNL1       -0.0453
     19 C         144.9584  142.4925  164.6237 C.ar    1  UNL1        0.1360
     20 N         144.4214  141.9779  163.3211 N.ar    1  UNL1       -0.2319
     21 C         143.3482  142.9182  162.8584 C.ar    1  UNL1        0.1372
     22 H         139.7571  146.2056  161.4631 H       1  UNL1        0.1452
     23 H         140.2510  146.9247  162.9283 H       1  UNL1        0.1452
     24 C         142.5272  134.0030  154.6595 C.ar    1  UNL1        0.1388
     25 C         141.4303  135.0186  154.5355 C.ar    1  UNL1        0.0382
     26 C         141.3041  136.1142  155.5521 C.ar    1  UNL1        0.0178
     27 C         142.2749  136.1944  156.6928 C.ar    1  UNL1        0.0518
     28 C         143.3719  135.1788  156.8169 C.ar    1  UNL1        0.0178
     29 C         143.4980  134.0831  155.8002 C.ar    1  UNL1        0.0382
     30 C         141.7103  131.7413  153.6759 C.3     1  UNL1        0.2525
     31 O         142.6534  132.9073  153.6429 O.3     1  UNL1       -0.4714
@<TRIPOS>BOND
     1    30    31    1
     2    31    24    1
     3    24    25   ar
     4    25    26   ar
     5    26    27   ar
     6    27     1    1
     7     1     2   am
     8     2     3    2
     9     2     4   am
    10     4     5    1
    11     5     6    1
    12     6     7    1
    13     7    12    1
    14    12    13   ar
    15    13    14   ar
    16    14    15    1
    17    14    16   ar
    18    16    17   ar
    19    17    18   ar
    20    18    19   ar
    21    19    20   ar
    22    20    21   ar
    23     7     8    1
    24     8     9    1
    25     8    10    1
    26    27    28   ar
    27    28    29   ar
    28    29    24   ar
    29    10     4    1
    30    21    12   ar
    31    21    17   ar
    32     1    11    1
    33    15    22    1
    34    15    23    1
