@<TRIPOS>MOLECULE
*****
 34 37 0 0 0
SMALL
GASTEIGER

@<TRIPOS>ATOM
      1 C         142.5377  137.8582  162.9005 C.3     1  UNL1        0.1875
      2 C         142.3806  138.9601  163.9061 C.ar    1  UNL1        0.0901
      3 C         142.3724  138.6421  165.3720 C.ar    1  UNL1        0.0212
      4 C         142.2153  139.7440  166.3775 C.ar    1  UNL1        0.0754
      5 C         142.0665  141.1638  165.9172 C.ar    1  UNL1        0.0382
      6 C         142.0748  141.4818  164.4513 C.ar    1  UNL1        0.1313
      7 N         142.2318  140.3799  163.4457 N.ar    1  UNL1       -0.2325
      8 N         141.9260  142.9016  163.9910 N.pl3   1  UNL1       -0.2922
      9 C         142.8389  144.0407  164.3364 C.3     1  UNL1        0.0933
     10 C         142.3154  145.2748  163.6634 C.3     1  UNL1        0.0383
     11 C         141.0790  144.8985  162.9021 C.3     1  UNL1        0.1128
     12 C         140.8383  143.4318  163.1046 C.3     1  UNL1        0.1072
     13 C         140.2318  145.8260  162.0822 C.1     1  UNL1        0.0739
     14 N         139.3847  146.7535  161.2624 N.1     1  UNL1       -0.1958
     15 C         142.2070  139.4261  167.8435 C.3     1  UNL1        0.4187
     16 F         142.1988  139.1082  169.3094 F       1  UNL1       -0.1659
     17 F         143.3691  138.4978  167.6487 F       1  UNL1       -0.1659
     18 F         141.0450  140.3544  168.0382 F       1  UNL1       -0.1659
     19 O         141.3881  137.4835  162.0128 O.3     1  UNL1       -0.3470
     20 C         139.9800  137.6196  162.5116 C.3     1  UNL1        0.1467
     21 C         137.9149  140.7540  158.1811 C.3     1  UNL1        0.0896
     22 N         138.3157  140.0846  159.4622 N.3     1  UNL1       -0.2715
     23 C         137.7676  140.5767  160.7689 C.3     1  UNL1        0.0725
     24 C         138.1684  139.9073  162.0500 C.3     1  UNL1        0.0238
     25 C         139.1173  138.7460  162.0245 C.3     1  UNL1        0.0489
     26 C         139.6655  138.2539  160.7179 C.3     1  UNL1        0.0238
     27 C         139.2647  138.9233  159.4367 C.3     1  UNL1        0.0725
     28 C         138.8688  138.8468  163.5004 C.ar    1  UNL1       -0.0202
     29 C         138.8060  137.6035  164.3371 C.ar    1  UNL1       -0.0019
     30 C         138.5574  137.7043  165.8129 C.ar    1  UNL1        0.0293
     31 C         138.3717  139.0486  166.4520 C.ar    1  UNL1        0.1401
     32 F         138.1231  139.1494  167.9278 F       1  UNL1       -0.2042
     33 C         138.4345  140.2920  165.6153 C.ar    1  UNL1        0.0293
     34 C         138.6830  140.1911  164.1395 C.ar    1  UNL1       -0.0019
@<TRIPOS>BOND
     1    21    22    1
     2    22    23    1
     3    23    24    1
     4    24    25    1
     5    25    20    1
     6    20    19    1
     7    19     1    1
     8     1     2    1
     9     2     3   ar
    10     3     4   ar
    11     4    15    1
    12    15    16    1
    13    15    17    1
    14    15    18    1
    15     4     5   ar
    16     5     6   ar
    17     6     8    1
    18     8     9    1
    19     9    10    1
    20    10    11    1
    21    11    13    1
    22    13    14    3
    23    11    12    1
    24     6     7   ar
    25    25    28    1
    26    28    29   ar
    27    29    30   ar
    28    30    31   ar
    29    31    32    1
    30    31    33   ar
    31    33    34   ar
    32    25    26    1
    33    26    27    1
    34    27    22    1
    35     7     2   ar
    36    34    28   ar
    37    12     8    1
@<TRIPOS>MOLECULE
*****
 34 37 0 0 0
SMALL
GASTEIGER

@<TRIPOS>ATOM
      1 C         143.9986  139.2397  164.2832 C.3     1  UNL1        0.1875
      2 C         142.9922  139.9374  165.1494 C.ar    1  UNL1        0.0901
      3 C         142.7353  139.4481  166.5439 C.ar    1  UNL1        0.0212
      4 C         141.7289  140.1460  167.4100 C.ar    1  UNL1        0.0754
      5 C         140.9794  141.3330  166.8817 C.ar    1  UNL1        0.0382
      6 C         141.2363  141.8223  165.4872 C.ar    1  UNL1        0.1313
      7 N         142.2427  141.1245  164.6210 N.ar    1  UNL1       -0.2325
      8 N         140.4868  143.0093  164.9589 N.pl3   1  UNL1       -0.2922
      9 C         139.4183  143.7718  165.6848 C.3     1  UNL1        0.0933
     10 C         138.9452  144.8761  164.7866 C.3     1  UNL1        0.0383
     11 C         139.7214  144.7961  163.5055 C.3     1  UNL1        0.1128
     12 C         140.6742  143.6424  163.6120 C.3     1  UNL1        0.1072
     13 C         139.5713  145.7094  162.3251 C.1     1  UNL1        0.0739
     14 N         139.4211  146.6228  161.1447 N.1     1  UNL1       -0.1958
     15 C         141.4719  139.6567  168.8045 C.3     1  UNL1        0.4187
     16 F         141.2148  139.1675  170.1990 F       1  UNL1       -0.1659
     17 F         139.9992  139.6230  168.5212 F       1  UNL1       -0.1659
     18 F         142.9445  139.6905  169.0877 F       1  UNL1       -0.1659
     19 O         143.5689  138.6132  162.9898 O.3     1  UNL1       -0.3470
     20 C         142.2398  137.9245  162.8952 C.3     1  UNL1        0.1467
     21 C         141.3366  138.3454  157.2517 C.3     1  UNL1        0.0896
     22 N         141.3307  138.3055  158.7512 N.3     1  UNL1       -0.2715
     23 C         140.0809  138.6500  159.5057 C.3     1  UNL1        0.0725
     24 C         140.0750  138.6101  161.0051 C.3     1  UNL1        0.0238
     25 C         141.3189  138.2256  161.7501 C.3     1  UNL1        0.0489
     26 C         142.5686  137.8811  160.9956 C.3     1  UNL1        0.0238
     27 C         142.5746  137.9210  159.4961 C.3     1  UNL1        0.0725
     28 C         140.3889  138.4656  162.9023 C.ar    1  UNL1       -0.0202
     29 C         139.4907  139.6669  162.9036 C.ar    1  UNL1       -0.0019
     30 C         138.5607  139.9069  164.0557 C.ar    1  UNL1        0.0293
     31 C         138.5289  138.9455  165.2067 C.ar    1  UNL1        0.1401
     32 F         137.5989  139.1854  166.3589 F       1  UNL1       -0.2042
     33 C         139.4271  137.7441  165.2055 C.ar    1  UNL1        0.0293
     34 C         140.3571  137.5041  164.0532 C.ar    1  UNL1       -0.0019
@<TRIPOS>BOND
     1    21    22    1
     2    22    23    1
     3    23    24    1
     4    24    25    1
     5    25    20    1
     6    20    19    1
     7    19     1    1
     8     1     2    1
     9     2     3   ar
    10     3     4   ar
    11     4    15    1
    12    15    16    1
    13    15    17    1
    14    15    18    1
    15     4     5   ar
    16     5     6   ar
    17     6     8    1
    18     8     9    1
    19     9    10    1
    20    10    11    1
    21    11    13    1
    22    13    14    3
    23    11    12    1
    24     6     7   ar
    25    25    28    1
    26    28    29   ar
    27    29    30   ar
    28    30    31   ar
    29    31    32    1
    30    31    33   ar
    31    33    34   ar
    32    25    26    1
    33    26    27    1
    34    27    22    1
    35     7     2   ar
    36    34    28   ar
    37    12     8    1
@<TRIPOS>MOLECULE
*****
 34 37 0 0 0
SMALL
GASTEIGER

@<TRIPOS>ATOM
      1 C         138.0048  142.5362  164.1929 C.3     1  UNL1        0.1875
      2 C         138.5187  141.1298  164.2824 C.ar    1  UNL1        0.0901
      3 C         137.9528  140.1882  165.3038 C.ar    1  UNL1        0.0212
      4 C         138.4667  138.7818  165.3931 C.ar    1  UNL1        0.0754
      5 C         139.5463  138.3170  164.4613 C.ar    1  UNL1        0.0382
      6 C         140.1121  139.2587  163.4399 C.ar    1  UNL1        0.1313
      7 N         139.5983  140.6651  163.3504 N.ar    1  UNL1       -0.2325
      8 N         141.1917  138.7939  162.5080 N.pl3   1  UNL1       -0.2922
      9 C         142.5683  138.3498  162.9052 C.3     1  UNL1        0.0933
     10 C         143.3117  137.9730  161.6581 C.3     1  UNL1        0.0383
     11 C         142.3946  138.1844  160.4901 C.3     1  UNL1        0.1128
     12 C         141.0843  138.6917  161.0154 C.3     1  UNL1        0.1072
     13 C         142.7289  137.9325  159.0496 C.1     1  UNL1        0.0739
     14 N         143.0633  137.6807  157.6092 N.1     1  UNL1       -0.1958
     15 C         137.9010  137.8400  166.4145 C.3     1  UNL1        0.4187
     16 F         137.3352  136.8984  167.4359 F       1  UNL1       -0.1659
     17 F         137.3598  139.0052  167.1890 F       1  UNL1       -0.1659
     18 F         138.4421  136.6750  165.6400 F       1  UNL1       -0.1659
     19 O         138.8255  143.6702  164.7320 O.3     1  UNL1       -0.3470
     20 C         139.7974  143.4281  165.8486 C.3     1  UNL1        0.1467
     21 C         144.4532  144.0791  162.5710 C.3     1  UNL1        0.0896
     22 N         143.3763  143.7452  163.5605 N.3     1  UNL1       -0.2715
     23 C         143.6468  142.7612  164.6598 C.3     1  UNL1        0.0725
     24 C         142.5700  142.4273  165.6492 C.3     1  UNL1        0.0238
     25 C         141.2227  143.0774  165.5394 C.3     1  UNL1        0.0489
     26 C         140.9523  144.0614  164.4400 C.3     1  UNL1        0.0238
     27 C         142.0291  144.3953  163.4506 C.3     1  UNL1        0.0725
     28 C         140.9983  142.2152  166.7461 C.ar    1  UNL1       -0.0202
     29 C         141.3159  140.7503  166.6908 C.ar    1  UNL1       -0.0019
     30 C         141.0914  139.8880  167.8974 C.ar    1  UNL1        0.0293
     31 C         140.5493  140.4907  169.1595 C.ar    1  UNL1        0.1401
     32 F         140.3248  139.6285  170.3662 F       1  UNL1       -0.2042
     33 C         140.2317  141.9556  169.2149 C.ar    1  UNL1        0.0293
     34 C         140.4561  142.8179  168.0082 C.ar    1  UNL1       -0.0019
@<TRIPOS>BOND
     1    21    22    1
     2    22    23    1
     3    23    24    1
     4    24    25    1
     5    25    20    1
     6    20    19    1
     7    19     1    1
     8     1     2    1
     9     2     3   ar
    10     3     4   ar
    11     4    15    1
    12    15    16    1
    13    15    17    1
    14    15    18    1
    15     4     5   ar
    16     5     6   ar
    17     6     8    1
    18     8     9    1
    19     9    10    1
    20    10    11    1
    21    11    13    1
    22    13    14    3
    23    11    12    1
    24     6     7   ar
    25    25    28    1
    26    28    29   ar
    27    29    30   ar
    28    30    31   ar
    29    31    32    1
    30    31    33   ar
    31    33    34   ar
    32    25    26    1
    33    26    27    1
    34    27    22    1
    35     7     2   ar
    36    34    28   ar
    37    12     8    1
@<TRIPOS>MOLECULE
*****
 34 37 0 0 0
SMALL
GASTEIGER

@<TRIPOS>ATOM
      1 C         140.7730  137.3915  162.9713 C.3     1  UNL1        0.1875
      2 C         139.9746  138.2773  163.8812 C.ar    1  UNL1        0.0901
      3 C         139.1553  137.6757  164.9844 C.ar    1  UNL1        0.0212
      4 C         138.3569  138.5615  165.8942 C.ar    1  UNL1        0.0754
      5 C         138.3777  140.0488  165.7010 C.ar    1  UNL1        0.0382
      6 C         139.1970  140.6504  164.5979 C.ar    1  UNL1        0.1313
      7 N         139.9954  139.7647  163.6880 N.ar    1  UNL1       -0.2325
      8 N         139.2178  142.1378  164.4047 N.pl3   1  UNL1       -0.2922
      9 C         139.2278  143.1684  165.4946 C.3     1  UNL1        0.0933
     10 C         139.2485  144.5232  164.8513 C.3     1  UNL1        0.0383
     11 C         139.2513  144.3300  163.3638 C.3     1  UNL1        0.1128
     12 C         139.2324  142.8557  163.0878 C.3     1  UNL1        0.1072
     13 C         139.2698  145.4198  162.3331 C.1     1  UNL1        0.0739
     14 N         139.2883  146.5095  161.3026 N.1     1  UNL1       -0.1958
     15 C         137.5375  137.9599  166.9974 C.3     1  UNL1        0.4187
     16 F         136.7183  137.3585  168.1005 F       1  UNL1       -0.1659
     17 F         137.5646  139.2682  167.7307 F       1  UNL1       -0.1659
     18 F         137.5106  136.6518  166.2640 F       1  UNL1       -0.1659
     19 O         142.1774  137.7672  162.6016 O.3     1  UNL1       -0.3470
     20 C         143.0885  138.3684  163.6304 C.3     1  UNL1        0.1467
     21 C         144.9583  142.6606  160.3254 C.3     1  UNL1        0.0896
     22 N         144.4867  141.7040  161.3802 N.3     1  UNL1       -0.2715
     23 C         144.3770  142.1548  162.8066 C.3     1  UNL1        0.0725
     24 C         143.9054  141.1983  163.8613 C.3     1  UNL1        0.0238
     25 C         143.5434  139.7909  163.4897 C.3     1  UNL1        0.0489
     26 C         143.6531  139.3401  162.0633 C.3     1  UNL1        0.0238
     27 C         144.1247  140.2966  161.0085 C.3     1  UNL1        0.0725
     28 C         143.2757  139.7477  164.9650 C.ar    1  UNL1       -0.0202
     29 C         142.6633  140.9326  165.6511 C.ar    1  UNL1       -0.0019
     30 C         142.3956  140.8895  167.1264 C.ar    1  UNL1        0.0293
     31 C         142.7404  139.6614  167.9155 C.ar    1  UNL1        0.1401
     32 F         142.4728  139.6182  169.3909 F       1  UNL1       -0.2042
     33 C         143.3529  138.4764  167.2295 C.ar    1  UNL1        0.0293
     34 C         143.6206  138.5196  165.7542 C.ar    1  UNL1       -0.0019
@<TRIPOS>BOND
     1    21    22    1
     2    22    23    1
     3    23    24    1
     4    24    25    1
     5    25    20    1
     6    20    19    1
     7    19     1    1
     8     1     2    1
     9     2     3   ar
    10     3     4   ar
    11     4    15    1
    12    15    16    1
    13    15    17    1
    14    15    18    1
    15     4     5   ar
    16     5     6   ar
    17     6     8    1
    18     8     9    1
    19     9    10    1
    20    10    11    1
    21    11    13    1
    22    13    14    3
    23    11    12    1
    24     6     7   ar
    25    25    28    1
    26    28    29   ar
    27    29    30   ar
    28    30    31   ar
    29    31    32    1
    30    31    33   ar
    31    33    34   ar
    32    25    26    1
    33    26    27    1
    34    27    22    1
    35     7     2   ar
    36    34    28   ar
    37    12     8    1
@<TRIPOS>MOLECULE
*****
 34 37 0 0 0
SMALL
GASTEIGER

@<TRIPOS>ATOM
      1 C         142.9024  138.2127  162.7207 C.3     1  UNL1        0.1875
      2 C         142.8922  139.4851  163.5149 C.ar    1  UNL1        0.0901
      3 C         143.4700  140.7395  162.9294 C.ar    1  UNL1        0.0212
      4 C         143.4597  142.0118  163.7237 C.ar    1  UNL1        0.0754
      5 C         142.8716  142.0300  165.1035 C.ar    1  UNL1        0.0382
      6 C         142.2938  140.7756  165.6890 C.ar    1  UNL1        0.1313
      7 N         142.3041  139.5032  164.8948 N.ar    1  UNL1       -0.2325
      8 N         141.7058  140.7938  167.0688 N.pl3   1  UNL1       -0.2922
      9 C         141.6472  139.6333  168.0176 C.3     1  UNL1        0.0933
     10 C         140.9783  140.0977  169.2772 C.3     1  UNL1        0.0383
     11 C         140.6235  141.5452  169.1071 C.3     1  UNL1        0.1128
     12 C         141.0731  141.9753  167.7422 C.3     1  UNL1        0.1072
     13 C         139.9392  142.4107  170.1234 C.1     1  UNL1        0.0739
     14 N         139.2549  143.2760  171.1396 N.1     1  UNL1       -0.1958
     15 C         144.0375  143.2663  163.1382 C.3     1  UNL1        0.4187
     16 F         144.6152  144.5206  162.5528 F       1  UNL1       -0.1659
     17 F         142.9084  144.0603  163.7253 F       1  UNL1       -0.1659
     18 F         145.1665  142.4721  162.5511 F       1  UNL1       -0.1659
     19 O         141.7151  137.8425  161.8822 O.3     1  UNL1       -0.3470
     20 C         140.3383  137.8722  162.4769 C.3     1  UNL1        0.1467
     21 C         137.9144  140.5988  158.0573 C.3     1  UNL1        0.0896
     22 N         138.3816  140.0117  159.3562 N.3     1  UNL1       -0.2715
     23 C         137.7203  140.4126  160.6414 C.3     1  UNL1        0.0725
     24 C         138.1876  139.8254  161.9403 C.3     1  UNL1        0.0238
     25 C         139.3161  138.8375  161.9538 C.3     1  UNL1        0.0489
     26 C         139.9774  138.4366  160.6686 C.3     1  UNL1        0.0238
     27 C         139.5102  139.0237  159.3698 C.3     1  UNL1        0.0725
     28 C         139.0098  138.9031  163.4208 C.ar    1  UNL1       -0.0202
     29 C         138.9328  137.6413  164.2281 C.ar    1  UNL1       -0.0019
     30 C         138.6265  137.7069  165.6950 C.ar    1  UNL1        0.0293
     31 C         138.3972  139.0345  166.3546 C.ar    1  UNL1        0.1401
     32 F         138.0909  139.1002  167.8215 F       1  UNL1       -0.2042
     33 C         138.4742  140.2964  165.5473 C.ar    1  UNL1        0.0293
     34 C         138.7805  140.2307  164.0804 C.ar    1  UNL1       -0.0019
@<TRIPOS>BOND
     1    21    22    1
     2    22    23    1
     3    23    24    1
     4    24    25    1
     5    25    20    1
     6    20    19    1
     7    19     1    1
     8     1     2    1
     9     2     3   ar
    10     3     4   ar
    11     4    15    1
    12    15    16    1
    13    15    17    1
    14    15    18    1
    15     4     5   ar
    16     5     6   ar
    17     6     8    1
    18     8     9    1
    19     9    10    1
    20    10    11    1
    21    11    13    1
    22    13    14    3
    23    11    12    1
    24     6     7   ar
    25    25    28    1
    26    28    29   ar
    27    29    30   ar
    28    30    31   ar
    29    31    32    1
    30    31    33   ar
    31    33    34   ar
    32    25    26    1
    33    26    27    1
    34    27    22    1
    35     7     2   ar
    36    34    28   ar
    37    12     8    1
@<TRIPOS>MOLECULE
*****
 34 37 0 0 0
SMALL
GASTEIGER

@<TRIPOS>ATOM
      1 C         139.4930  142.8516  165.0443 C.3     1  UNL1        0.1875
      2 C         139.3080  141.4339  164.5907 C.ar    1  UNL1        0.0901
      3 C         138.7934  140.4009  165.5490 C.ar    1  UNL1        0.0212
      4 C         138.6084  138.9832  165.0953 C.ar    1  UNL1        0.0754
      5 C         138.9379  138.5984  163.6835 C.ar    1  UNL1        0.0382
      6 C         139.4524  139.6314  162.7252 C.ar    1  UNL1        0.1313
      7 N         139.6375  141.0491  163.1788 N.ar    1  UNL1       -0.2325
      8 N         139.7819  139.2466  161.3133 N.pl3   1  UNL1       -0.2922
      9 C         138.8029  139.1125  160.1847 C.3     1  UNL1        0.0933
     10 C         139.5640  138.7114  158.9560 C.3     1  UNL1        0.0383
     11 C         141.0134  138.5976  159.3252 C.3     1  UNL1        0.1128
     12 C         141.1481  138.9284  160.7821 C.3     1  UNL1        0.1072
     13 C         142.1319  138.2194  158.4000 C.1     1  UNL1        0.0739
     14 N         143.2504  137.8413  157.4748 N.1     1  UNL1       -0.1958
     15 C         138.0938  137.9502  166.0535 C.3     1  UNL1        0.4187
     16 F         137.5793  136.9172  167.0117 F       1  UNL1       -0.1659
     17 F         137.3456  139.0149  166.7995 F       1  UNL1       -0.1659
     18 F         138.8421  136.8855  165.3075 F       1  UNL1       -0.1659
     19 O         140.6330  143.2057  165.9528 O.3     1  UNL1       -0.3470
     20 C         141.8945  142.3946  165.9242 C.3     1  UNL1        0.1467
     21 C         141.7280  140.9921  171.4782 C.3     1  UNL1        0.0896
     22 N         141.8782  141.1317  169.9923 N.3     1  UNL1       -0.2715
     23 C         142.4912  140.0205  169.1928 C.3     1  UNL1        0.0725
     24 C         142.6414  140.1601  167.7069 C.3     1  UNL1        0.0238
     25 C         142.1787  141.4110  167.0205 C.3     1  UNL1        0.0489
     26 C         141.5656  142.5222  167.8201 C.3     1  UNL1        0.0238
     27 C         141.4154  142.3826  169.3060 C.3     1  UNL1        0.0725
     28 C         142.6930  140.6413  165.8402 C.ar    1  UNL1       -0.0202
     29 C         142.1939  139.2518  165.5756 C.ar    1  UNL1       -0.0019
     30 C         142.7082  138.4821  164.3954 C.ar    1  UNL1        0.0293
     31 C         143.7217  139.1021  163.4797 C.ar    1  UNL1        0.1401
     32 F         144.2360  138.3324  162.2993 F       1  UNL1       -0.2042
     33 C         144.2208  140.4916  163.7442 C.ar    1  UNL1        0.0293
     34 C         143.7065  141.2613  164.9245 C.ar    1  UNL1       -0.0019
@<TRIPOS>BOND
     1    21    22    1
     2    22    23    1
     3    23    24    1
     4    24    25    1
     5    25    20    1
     6    20    19    1
     7    19     1    1
     8     1     2    1
     9     2     3   ar
    10     3     4   ar
    11     4    15    1
    12    15    16    1
    13    15    17    1
    14    15    18    1
    15     4     5   ar
    16     5     6   ar
    17     6     8    1
    18     8     9    1
    19     9    10    1
    20    10    11    1
    21    11    13    1
    22    13    14    3
    23    11    12    1
    24     6     7   ar
    25    25    28    1
    26    28    29   ar
    27    29    30   ar
    28    30    31   ar
    29    31    32    1
    30    31    33   ar
    31    33    34   ar
    32    25    26    1
    33    26    27    1
    34    27    22    1
    35     7     2   ar
    36    34    28   ar
    37    12     8    1
@<TRIPOS>MOLECULE
*****
 34 37 0 0 0
SMALL
GASTEIGER

@<TRIPOS>ATOM
      1 C         143.4615  141.4789  164.6841 C.3     1  UNL1        0.1875
      2 C         142.1038  141.8768  164.1857 C.ar    1  UNL1        0.0901
      3 C         141.3284  142.9472  164.8950 C.ar    1  UNL1        0.0212
      4 C         139.9708  143.3450  164.3965 C.ar    1  UNL1        0.0754
      5 C         139.3885  142.6724  163.1888 C.ar    1  UNL1        0.0382
      6 C         140.1638  141.6020  162.4795 C.ar    1  UNL1        0.1313
      7 N         141.5215  141.2042  162.9779 N.ar    1  UNL1       -0.2325
      8 N         139.5815  140.9295  161.2718 N.pl3   1  UNL1       -0.2922
      9 C         138.1815  141.0955  160.7594 C.3     1  UNL1        0.0933
     10 C         138.0315  140.2415  159.5354 C.3     1  UNL1        0.0383
     11 C         139.3389  139.5477  159.2913 C.3     1  UNL1        0.1128
     12 C         140.2968  139.9729  160.3645 C.3     1  UNL1        0.1072
     13 C         139.6362  138.5958  158.1707 C.1     1  UNL1        0.0739
     14 N         139.9335  137.6440  157.0502 N.1     1  UNL1       -0.1958
     15 C         139.1953  144.4154  165.1057 C.3     1  UNL1        0.4187
     16 F         138.4199  145.4858  165.8149 F       1  UNL1       -0.1659
     17 F         138.8120  145.0131  163.7844 F       1  UNL1       -0.1659
     18 F         139.5786  143.8176  166.4270 F       1  UNL1       -0.1659
     19 O         143.5881  140.5199  165.8305 O.3     1  UNL1       -0.3470
     20 C         142.5082  139.5110  166.0872 C.3     1  UNL1        0.1467
     21 C         140.9834  141.3419  171.2991 C.3     1  UNL1        0.0896
     22 N         141.1343  140.8279  169.8981 N.3     1  UNL1       -0.2715
     23 C         139.9214  140.4298  169.1105 C.3     1  UNL1        0.0725
     24 C         140.0724  139.9158  167.7094 C.3     1  UNL1        0.0238
     25 C         141.4362  139.8000  167.0959 C.3     1  UNL1        0.0489
     26 C         142.6491  140.1981  167.8835 C.3     1  UNL1        0.0238
     27 C         142.4982  140.7120  169.2846 C.3     1  UNL1        0.0725
     28 C         140.5956  139.3015  165.9579 C.ar    1  UNL1       -0.0202
     29 C         141.1217  138.2295  165.0503 C.ar    1  UNL1       -0.0019
     30 C         140.2811  137.7310  163.9123 C.ar    1  UNL1        0.0293
     31 C         138.9143  138.3046  163.6822 C.ar    1  UNL1        0.1401
     32 F         138.0737  137.8061  162.5442 F       1  UNL1       -0.2042
     33 C         138.3882  139.3766  164.5898 C.ar    1  UNL1        0.0293
     34 C         139.2288  139.8751  165.7278 C.ar    1  UNL1       -0.0019
@<TRIPOS>BOND
     1    21    22    1
     2    22    23    1
     3    23    24    1
     4    24    25    1
     5    25    20    1
     6    20    19    1
     7    19     1    1
     8     1     2    1
     9     2     3   ar
    10     3     4   ar
    11     4    15    1
    12    15    16    1
    13    15    17    1
    14    15    18    1
    15     4     5   ar
    16     5     6   ar
    17     6     8    1
    18     8     9    1
    19     9    10    1
    20    10    11    1
    21    11    13    1
    22    13    14    3
    23    11    12    1
    24     6     7   ar
    25    25    28    1
    26    28    29   ar
    27    29    30   ar
    28    30    31   ar
    29    31    32    1
    30    31    33   ar
    31    33    34   ar
    32    25    26    1
    33    26    27    1
    34    27    22    1
    35     7     2   ar
    36    34    28   ar
    37    12     8    1
@<TRIPOS>MOLECULE
*****
 34 37 0 0 0
SMALL
GASTEIGER

@<TRIPOS>ATOM
      1 C         140.5494  137.5783  163.1684 C.3     1  UNL1        0.1875
      2 C         140.7787  138.6901  164.1489 C.ar    1  UNL1        0.0901
      3 C         141.4745  138.4124  165.4485 C.ar    1  UNL1        0.0212
      4 C         141.7037  139.5242  166.4289 C.ar    1  UNL1        0.0754
      5 C         141.2373  140.9137  166.1098 C.ar    1  UNL1        0.0382
      6 C         140.5415  141.1913  164.8103 C.ar    1  UNL1        0.1313
      7 N         140.3122  140.0796  163.8298 N.ar    1  UNL1       -0.2325
      8 N         140.0750  142.5808  164.4912 N.pl3   1  UNL1       -0.2922
      9 C         139.4344  143.5381  165.4521 C.3     1  UNL1        0.0933
     10 C         139.1307  144.8059  164.7101 C.3     1  UNL1        0.0383
     11 C         139.5836  144.6321  163.2907 C.3     1  UNL1        0.1128
     12 C         140.1672  143.2569  163.1555 C.3     1  UNL1        0.1072
     13 C         139.4724  145.6541  162.1983 C.1     1  UNL1        0.0739
     14 N         139.3612  146.6760  161.1059 N.1     1  UNL1       -0.1958
     15 C         142.3995  139.2466  167.7285 C.3     1  UNL1        0.4187
     16 F         143.0953  138.9690  169.0280 F       1  UNL1       -0.1659
     17 F         143.5132  138.5682  166.9872 F       1  UNL1       -0.1659
     18 F         141.2858  139.9251  168.4697 F       1  UNL1       -0.1659
     19 O         141.4047  137.4728  161.9406 O.3     1  UNL1       -0.3470
     20 C         142.7834  138.0637  161.9340 C.3     1  UNL1        0.1467
     21 C         143.3732  138.8816  156.2927 C.3     1  UNL1        0.0896
     22 N         143.3233  138.8972  157.7917 N.3     1  UNL1       -0.2715
     23 C         143.8394  140.0859  158.5471 C.3     1  UNL1        0.0725
     24 C         143.7894  140.1015  160.0461 C.3     1  UNL1        0.0238
     25 C         143.2233  138.9283  160.7899 C.3     1  UNL1        0.0489
     26 C         142.7072  137.7396  160.0346 C.3     1  UNL1        0.0238
     27 C         142.7572  137.7240  158.5355 C.3     1  UNL1        0.0725
     28 C         143.5867  139.8168  161.9426 C.ar    1  UNL1       -0.0202
     29 C         144.3171  139.2512  163.1243 C.ar    1  UNL1       -0.0019
     30 C         144.6805  140.1396  164.2770 C.ar    1  UNL1        0.0293
     31 C         144.3134  141.5937  164.2478 C.ar    1  UNL1        0.1401
     32 F         144.6767  142.4822  165.4005 F       1  UNL1       -0.2042
     33 C         143.5829  142.1594  163.0661 C.ar    1  UNL1        0.0293
     34 C         143.2196  141.2709  161.9135 C.ar    1  UNL1       -0.0019
@<TRIPOS>BOND
     1    21    22    1
     2    22    23    1
     3    23    24    1
     4    24    25    1
     5    25    20    1
     6    20    19    1
     7    19     1    1
     8     1     2    1
     9     2     3   ar
    10     3     4   ar
    11     4    15    1
    12    15    16    1
    13    15    17    1
    14    15    18    1
    15     4     5   ar
    16     5     6   ar
    17     6     8    1
    18     8     9    1
    19     9    10    1
    20    10    11    1
    21    11    13    1
    22    13    14    3
    23    11    12    1
    24     6     7   ar
    25    25    28    1
    26    28    29   ar
    27    29    30   ar
    28    30    31   ar
    29    31    32    1
    30    31    33   ar
    31    33    34   ar
    32    25    26    1
    33    26    27    1
    34    27    22    1
    35     7     2   ar
    36    34    28   ar
    37    12     8    1
@<TRIPOS>MOLECULE
*****
 34 37 0 0 0
SMALL
GASTEIGER

@<TRIPOS>ATOM
      1 C         143.0236  139.8263  164.5970 C.3     1  UNL1        0.1875
      2 C         141.5774  139.6230  164.2547 C.ar    1  UNL1        0.0901
      3 C         140.6553  138.9784  165.2469 C.ar    1  UNL1        0.0212
      4 C         139.2091  138.7753  164.9046 C.ar    1  UNL1        0.0754
      5 C         138.6850  139.2166  163.5703 C.ar    1  UNL1        0.0382
      6 C         139.6071  139.8612  162.5781 C.ar    1  UNL1        0.1313
      7 N         141.0533  140.0644  162.9203 N.ar    1  UNL1       -0.2325
      8 N         139.0829  140.3025  161.2438 N.pl3   1  UNL1       -0.2922
      9 C         137.9968  139.6305  160.4570 C.3     1  UNL1        0.0933
     10 C         137.7954  140.4059  159.1890 C.3     1  UNL1        0.0383
     11 C         138.7570  141.5572  159.1919 C.3     1  UNL1        0.1128
     12 C         139.5527  141.4932  160.4619 C.3     1  UNL1        0.1072
     13 C         138.8982  142.5909  158.1141 C.1     1  UNL1        0.0739
     14 N         139.0393  143.6246  157.0364 N.1     1  UNL1       -0.1958
     15 C         138.2869  138.1307  165.8967 C.3     1  UNL1        0.4187
     16 F         137.3648  137.4860  166.8887 F       1  UNL1       -0.1659
     17 F         138.7963  136.7791  165.4918 F       1  UNL1       -0.1659
     18 F         137.7777  139.4822  166.3014 F       1  UNL1       -0.1659
     19 O         143.4379  140.9972  165.4380 O.3     1  UNL1       -0.3470
     20 C         142.5609  142.2115  165.5170 C.3     1  UNL1        0.1467
     21 C         141.8283  142.0865  171.1994 C.3     1  UNL1        0.0896
     22 N         141.7800  142.1998  169.7045 N.3     1  UNL1       -0.2715
     23 C         140.5241  142.6628  169.0275 C.3     1  UNL1        0.0725
     24 C         140.4759  142.7761  167.5326 C.3     1  UNL1        0.0238
     25 C         141.6836  142.4264  166.7146 C.3     1  UNL1        0.0489
     26 C         142.9395  141.9634  167.3915 C.3     1  UNL1        0.0238
     27 C         142.9877  141.8501  168.8865 C.3     1  UNL1        0.0725
     28 C         140.7323  142.8148  165.6217 C.ar    1  UNL1       -0.0202
     29 C         139.3095  142.3416  165.6626 C.ar    1  UNL1       -0.0019
     30 C         138.3583  142.7299  164.5698 C.ar    1  UNL1        0.0293
     31 C         138.8299  143.5915  163.4361 C.ar    1  UNL1        0.1401
     32 F         137.8786  143.9799  162.3432 F       1  UNL1       -0.2042
     33 C         140.2526  144.0648  163.3952 C.ar    1  UNL1        0.0293
     34 C         141.2039  143.6764  164.4881 C.ar    1  UNL1       -0.0019
@<TRIPOS>BOND
     1    21    22    1
     2    22    23    1
     3    23    24    1
     4    24    25    1
     5    25    20    1
     6    20    19    1
     7    19     1    1
     8     1     2    1
     9     2     3   ar
    10     3     4   ar
    11     4    15    1
    12    15    16    1
    13    15    17    1
    14    15    18    1
    15     4     5   ar
    16     5     6   ar
    17     6     8    1
    18     8     9    1
    19     9    10    1
    20    10    11    1
    21    11    13    1
    22    13    14    3
    23    11    12    1
    24     6     7   ar
    25    25    28    1
    26    28    29   ar
    27    29    30   ar
    28    30    31   ar
    29    31    32    1
    30    31    33   ar
    31    33    34   ar
    32    25    26    1
    33    26    27    1
    34    27    22    1
    35     7     2   ar
    36    34    28   ar
    37    12     8    1
