@<TRIPOS>MOLECULE
*****
 45 50 0 0 0
SMALL
GASTEIGER

@<TRIPOS>ATOM
      1 O         140.4884  146.1660  160.5600 O.2     1  UNL1       -0.2749
      2 C         140.2219  144.8519  159.8876 C.2     1  UNL1        0.2253
      3 N         140.0099  144.7981  158.4037 N.am    1  UNL1       -0.2781
      4 C         140.0353  145.9689  157.4664 C.3     1  UNL1        0.0949
      5 C         139.7764  145.4585  156.0799 C.3     1  UNL1        0.0390
      6 C         139.5910  143.9721  156.1603 C.3     1  UNL1        0.0758
      7 C         139.7353  143.5640  157.5964 C.3     1  UNL1        0.1091
      8 C         140.1673  143.5916  160.6993 C.3     1  UNL1        0.0801
      9 C         138.8589  143.1141  161.2560 C.3     1  UNL1        0.0306
     10 C         138.8044  141.8539  162.0676 C.3     1  UNL1        0.0941
     11 N         140.0583  141.0711  162.3224 N.pl3   1  UNL1       -0.2782
     12 C         141.3667  141.5485  161.7657 C.3     1  UNL1        0.0941
     13 C         141.4213  142.8088  160.9541 C.3     1  UNL1        0.0306
     14 C         140.0038  139.8108  163.1341 C.ar    1  UNL1        0.2201
     15 N         140.9037  138.6600  162.7937 N.ar    1  UNL1       -0.2121
     16 C         140.8491  137.3996  163.6054 C.ar    1  UNL1        0.1033
     17 C         139.8946  137.2902  164.7573 C.ar    1  UNL1        0.0439
     18 C         138.9947  138.4411  165.0977 C.ar    1  UNL1        0.1570
     19 N         139.0493  139.7013  164.2860 N.ar    1  UNL1       -0.2096
     20 C         138.0403  138.3316  166.2496 C.3     1  UNL1        0.4350
     21 F         137.0858  138.2222  167.4016 F       1  UNL1       -0.1644
     22 F         138.0499  136.8376  166.1156 F       1  UNL1       -0.1644
     23 F         138.0306  139.8256  166.3836 F       1  UNL1       -0.1644
     24 N         139.3105  143.0549  155.0070 N.3     1  UNL1       -0.2982
     25 H         140.1612  142.5157  154.8459 H       1  UNL1        0.1232
     26 C         138.1825  142.0697  155.0893 C.3     1  UNL1        0.0542
     27 C         138.3782  140.6634  154.6055 C.3     1  UNL1        0.0185
     28 C         137.2502  139.6782  154.6878 C.3     1  UNL1        0.0340
     29 C         135.9265  140.0992  155.2539 C.3     1  UNL1        0.1231
     30 O         135.6262  138.6663  154.9273 O.3     1  UNL1       -0.3812
     31 C         135.7308  141.5055  155.7377 C.3     1  UNL1        0.0340
     32 C         136.8588  142.4908  155.6554 C.3     1  UNL1        0.0185
     33 H         136.4133  138.2508  154.5416 H       1  UNL1        0.2107
     34 C         134.4984  140.0225  155.7066 C.ar    1  UNL1        0.0830
     35 C         133.5395  141.1203  155.3528 C.ar    1  UNL1        0.0172
     36 C         132.1115  141.0436  155.8054 C.ar    1  UNL1        0.0059
     37 C         131.6424  139.8691  156.6120 C.ar    1  UNL1        0.0549
     38 C         132.6014  138.7712  156.9658 C.ar    1  UNL1        0.1015
     39 N         134.0295  138.8480  156.5131 N.ar    1  UNL1       -0.2458
     40 C         130.2145  139.7924  157.0647 C.ar    1  UNL1        0.1638
     41 N         129.8696  139.0865  158.3424 N.ar    1  UNL1       -0.2250
     42 C         128.4415  139.0099  158.7951 C.ar    1  UNL1        0.1022
     43 C         127.3584  139.6391  157.9700 C.ar    1  UNL1        0.0414
     44 C         127.7033  140.3450  156.6921 C.ar    1  UNL1        0.1022
     45 N         129.1313  140.4216  156.2395 N.ar    1  UNL1       -0.2250
@<TRIPOS>BOND
     1     1     2    2
     2     2     8    1
     3     8     9    1
     4     9    10    1
     5    10    11    1
     6    11    14    1
     7    14    15   ar
     8    15    16   ar
     9    16    17   ar
    10    17    18   ar
    11    18    20    1
    12    20    21    1
    13    20    22    1
    14    20    23    1
    15    18    19   ar
    16    11    12    1
    17    12    13    1
    18     2     3   am
    19     3     4    1
    20     4     5    1
    21     5     6    1
    22     6    24    1
    23    26    24    1
    24    26    27    1
    25    27    28    1
    26    28    29    1
    27    29    30    1
    28    29    34    1
    29    34    35   ar
    30    35    36   ar
    31    36    37   ar
    32    37    40    1
    33    40    41   ar
    34    41    42   ar
    35    42    43   ar
    36    43    44   ar
    37    44    45   ar
    38    37    38   ar
    39    38    39   ar
    40    29    31    1
    41    31    32    1
    42     6     7    1
    43    13     8    1
    44     7     3    1
    45    19    14   ar
    46    32    26    1
    47    39    34   ar
    48    45    40   ar
    49    24    25    1
    50    30    33    1
@<TRIPOS>MOLECULE
*****
 45 50 0 0 0
SMALL
GASTEIGER

@<TRIPOS>ATOM
      1 O         139.2552  146.5878  160.8739 O.2     1  UNL1       -0.2749
      2 C         140.0956  145.3481  160.9561 C.2     1  UNL1        0.2253
      3 N         141.0394  145.0066  159.8414 N.am    1  UNL1       -0.2781
      4 C         141.2499  145.8045  158.5888 C.3     1  UNL1        0.0949
      5 C         142.2790  145.0984  157.7568 C.3     1  UNL1        0.0390
      6 C         142.7046  143.8639  158.4952 C.3     1  UNL1        0.0758
      7 C         141.9385  143.8073  159.7835 C.3     1  UNL1        0.1091
      8 C         139.9922  144.4498  162.1530 C.3     1  UNL1        0.0801
      9 C         138.9851  143.3384  162.1718 C.3     1  UNL1        0.0306
     10 C         138.8817  142.4402  163.3686 C.3     1  UNL1        0.0941
     11 N         139.7854  142.6534  164.5467 N.pl3   1  UNL1       -0.2782
     12 C         140.7926  143.7648  164.5278 C.3     1  UNL1        0.0941
     13 C         140.8959  144.6630  163.3310 C.3     1  UNL1        0.0306
     14 C         139.6820  141.7552  165.7436 C.ar    1  UNL1        0.2201
     15 N         140.3133  142.1607  167.0424 N.ar    1  UNL1       -0.2121
     16 C         140.2099  141.2624  168.2393 C.ar    1  UNL1        0.1033
     17 C         139.4752  139.9586  168.1373 C.ar    1  UNL1        0.0439
     18 C         138.8439  139.5531  166.8383 C.ar    1  UNL1        0.1570
     19 N         138.9473  140.4514  165.6415 N.ar    1  UNL1       -0.2096
     20 C         138.1092  138.2494  166.7363 C.3     1  UNL1        0.4350
     21 F         137.3745  136.9456  166.6343 F       1  UNL1       -0.1644
     22 F         138.9721  137.8540  165.5749 F       1  UNL1       -0.1644
     23 F         137.2462  138.6448  167.8978 F       1  UNL1       -0.1644
     24 N         143.7183  142.8622  158.0274 N.3     1  UNL1       -0.2982
     25 H         144.2000  142.5204  158.8590 H       1  UNL1        0.1232
     26 C         143.2779  141.6542  157.2550 C.3     1  UNL1        0.0542
     27 C         142.3843  141.8125  156.0606 C.3     1  UNL1        0.0185
     28 C         141.9438  140.6046  155.2881 C.3     1  UNL1        0.0340
     29 C         142.3969  139.2383  155.7099 C.3     1  UNL1        0.1231
     30 O         141.5598  138.8787  154.5184 O.3     1  UNL1       -0.3812
     31 C         143.2904  139.0800  156.9043 C.3     1  UNL1        0.0340
     32 C         143.7309  140.2879  157.6768 C.3     1  UNL1        0.0185
     33 H         141.1888  139.6857  154.1284 H       1  UNL1        0.2107
     34 C         142.5592  137.7471  155.7179 C.ar    1  UNL1        0.0830
     35 C         141.3493  136.8608  155.6962 C.ar    1  UNL1        0.0172
     36 C         141.5116  135.3697  155.7042 C.ar    1  UNL1        0.0059
     37 C         142.8839  134.7648  155.7339 C.ar    1  UNL1        0.0549
     38 C         144.0939  135.6510  155.7556 C.ar    1  UNL1        0.1015
     39 N         143.9315  137.1423  155.7476 N.ar    1  UNL1       -0.2458
     40 C         143.0462  133.2736  155.7419 C.ar    1  UNL1        0.1638
     41 N         144.4049  132.6681  155.9347 N.ar    1  UNL1       -0.2250
     42 C         144.5672  131.1768  155.9427 C.ar    1  UNL1        0.1022
     43 C         143.3707  130.2913  155.7579 C.ar    1  UNL1        0.0414
     44 C         142.0120  130.8968  155.5650 C.ar    1  UNL1        0.1022
     45 N         141.8498  132.3880  155.5571 N.ar    1  UNL1       -0.2250
@<TRIPOS>BOND
     1     1     2    2
     2     2     8    1
     3     8     9    1
     4     9    10    1
     5    10    11    1
     6    11    14    1
     7    14    15   ar
     8    15    16   ar
     9    16    17   ar
    10    17    18   ar
    11    18    20    1
    12    20    21    1
    13    20    22    1
    14    20    23    1
    15    18    19   ar
    16    11    12    1
    17    12    13    1
    18     2     3   am
    19     3     4    1
    20     4     5    1
    21     5     6    1
    22     6    24    1
    23    26    24    1
    24    26    27    1
    25    27    28    1
    26    28    29    1
    27    29    30    1
    28    29    34    1
    29    34    35   ar
    30    35    36   ar
    31    36    37   ar
    32    37    40    1
    33    40    41   ar
    34    41    42   ar
    35    42    43   ar
    36    43    44   ar
    37    44    45   ar
    38    37    38   ar
    39    38    39   ar
    40    29    31    1
    41    31    32    1
    42     6     7    1
    43    13     8    1
    44     7     3    1
    45    19    14   ar
    46    32    26    1
    47    39    34   ar
    48    45    40   ar
    49    24    25    1
    50    30    33    1
@<TRIPOS>MOLECULE
*****
 45 50 0 0 0
SMALL
GASTEIGER

@<TRIPOS>ATOM
      1 O         139.9891  146.7209  160.9551 O.2     1  UNL1       -0.2749
      2 C         139.9320  145.2312  160.7891 C.2     1  UNL1        0.2253
      3 N         139.9582  144.6280  159.4161 N.am    1  UNL1       -0.2781
      4 C         140.0392  145.3833  158.1227 C.3     1  UNL1        0.0949
      5 C         140.0391  144.3856  157.0025 C.3     1  UNL1        0.0390
      6 C         139.9580  143.0137  157.6037 C.3     1  UNL1        0.0758
      7 C         139.9080  143.1635  159.0953 C.3     1  UNL1        0.1091
      8 C         139.8487  144.3448  161.9964 C.3     1  UNL1        0.0801
      9 C         141.0964  143.7464  162.5750 C.3     1  UNL1        0.0306
     10 C         141.0131  142.8599  163.7822 C.3     1  UNL1        0.0941
     11 N         139.6819  142.5719  164.4107 N.pl3   1  UNL1       -0.2782
     12 C         138.4341  143.1703  163.8320 C.3     1  UNL1        0.0941
     13 C         138.5175  144.0567  162.6249 C.3     1  UNL1        0.0306
     14 C         139.5985  141.6855  165.6179 C.ar    1  UNL1        0.2201
     15 N         140.2433  142.1080  166.9046 N.ar    1  UNL1       -0.2121
     16 C         140.1600  141.2216  168.1118 C.ar    1  UNL1        0.1033
     17 C         139.4318  139.9126  168.0323 C.ar    1  UNL1        0.0439
     18 C         138.7871  139.4900  166.7455 C.ar    1  UNL1        0.1570
     19 N         138.8704  140.3765  165.5383 N.ar    1  UNL1       -0.2096
     20 C         138.0589  138.1810  166.6659 C.3     1  UNL1        0.4350
     21 F         137.3308  136.8720  166.5863 F       1  UNL1       -0.1644
     22 F         137.2158  138.5786  167.8411 F       1  UNL1       -0.1644
     23 F         138.9021  137.7834  165.4907 F       1  UNL1       -0.1644
     24 N         139.9315  141.7193  156.8462 N.3     1  UNL1       -0.2982
     25 H         140.3274  141.0094  157.4624 H       1  UNL1        0.1232
     26 C         138.6299  141.1743  156.3377 C.3     1  UNL1        0.0542
     27 C         138.5983  140.3611  155.0777 C.3     1  UNL1        0.0185
     28 C         137.2967  139.8160  154.5692 C.3     1  UNL1        0.0340
     29 C         136.0266  140.0842  155.3207 C.3     1  UNL1        0.1231
     30 O         135.4891  139.2654  154.1847 O.3     1  UNL1       -0.3812
     31 C         136.0581  140.8975  156.5807 C.3     1  UNL1        0.0340
     32 C         137.3598  141.4425  157.0893 C.3     1  UNL1        0.0185
     33 H         136.2173  139.0109  153.5967 H       1  UNL1        0.2107
     34 C         134.5697  140.0681  155.6777 C.ar    1  UNL1        0.0830
     35 C         133.6827  141.2037  155.2612 C.ar    1  UNL1        0.0172
     36 C         132.2260  141.1876  155.6182 C.ar    1  UNL1        0.0059
     37 C         131.6560  140.0356  156.3916 C.ar    1  UNL1        0.0549
     38 C         132.5430  138.8998  156.8082 C.ar    1  UNL1        0.1015
     39 N         133.9999  138.9161  156.4511 N.ar    1  UNL1       -0.2458
     40 C         130.1993  140.0194  156.7486 C.ar    1  UNL1        0.1638
     41 N         129.7293  139.2503  157.9476 N.ar    1  UNL1       -0.2250
     42 C         128.2725  139.2341  158.3045 C.ar    1  UNL1        0.1022
     43 C         127.2856  139.9871  157.4624 C.ar    1  UNL1        0.0414
     44 C         127.7555  140.7562  156.2634 C.ar    1  UNL1        0.1022
     45 N         129.2123  140.7724  155.9065 N.ar    1  UNL1       -0.2250
@<TRIPOS>BOND
     1     1     2    2
     2     2     8    1
     3     8     9    1
     4     9    10    1
     5    10    11    1
     6    11    14    1
     7    14    15   ar
     8    15    16   ar
     9    16    17   ar
    10    17    18   ar
    11    18    20    1
    12    20    21    1
    13    20    22    1
    14    20    23    1
    15    18    19   ar
    16    11    12    1
    17    12    13    1
    18     2     3   am
    19     3     4    1
    20     4     5    1
    21     5     6    1
    22     6    24    1
    23    26    24    1
    24    26    27    1
    25    27    28    1
    26    28    29    1
    27    29    30    1
    28    29    34    1
    29    34    35   ar
    30    35    36   ar
    31    36    37   ar
    32    37    40    1
    33    40    41   ar
    34    41    42   ar
    35    42    43   ar
    36    43    44   ar
    37    44    45   ar
    38    37    38   ar
    39    38    39   ar
    40    29    31    1
    41    31    32    1
    42     6     7    1
    43    13     8    1
    44     7     3    1
    45    19    14   ar
    46    32    26    1
    47    39    34   ar
    48    45    40   ar
    49    24    25    1
    50    30    33    1
@<TRIPOS>MOLECULE
*****
 45 50 0 0 0
SMALL
GASTEIGER

@<TRIPOS>ATOM
      1 O         144.1207  137.6901  166.5895 O.2     1  UNL1       -0.2749
      2 C         143.3837  138.7712  165.8559 C.2     1  UNL1        0.2253
      3 N         142.6665  139.8428  166.6222 N.am    1  UNL1       -0.2781
      4 C         142.5982  139.9632  168.1158 C.3     1  UNL1        0.0949
      5 C         141.7811  141.1769  168.4461 C.3     1  UNL1        0.0390
      6 C         141.3442  141.8067  167.1566 C.3     1  UNL1        0.0758
      7 C         141.8914  140.9821  166.0294 C.3     1  UNL1        0.1091
      8 C         143.3641  138.7807  164.3561 C.3     1  UNL1        0.0801
      9 C         144.4131  139.5380  163.5971 C.3     1  UNL1        0.0306
     10 C         144.3934  139.5475  162.0972 C.3     1  UNL1        0.0941
     11 N         143.3248  138.7997  161.3564 N.pl3   1  UNL1       -0.2782
     12 C         142.2758  138.0425  162.1154 C.3     1  UNL1        0.0941
     13 C         142.2954  138.0330  163.6152 C.3     1  UNL1        0.0306
     14 C         143.3052  138.8092  159.8565 C.ar    1  UNL1        0.2201
     15 N         143.8707  139.9786  159.1065 N.ar    1  UNL1       -0.2121
     16 C         143.8511  139.9881  157.6066 C.ar    1  UNL1        0.1033
     17 C         143.2659  138.8282  156.8568 C.ar    1  UNL1        0.0439
     18 C         142.7003  137.6588  157.6070 C.ar    1  UNL1        0.1570
     19 N         142.7200  137.6493  159.1068 N.ar    1  UNL1       -0.2096
     20 C         142.1151  136.4989  156.8572 C.3     1  UNL1        0.4350
     21 F         141.5299  135.3389  156.1075 F       1  UNL1       -0.1644
     22 F         143.4230  135.7718  156.9612 F       1  UNL1       -0.1644
     23 F         140.8072  137.2259  156.7532 F       1  UNL1       -0.1644
     24 N         140.5072  143.0437  167.0187 N.3     1  UNL1       -0.2982
     25 H         141.0772  143.8231  167.3474 H       1  UNL1        0.1232
     26 C         139.9674  143.4381  165.6760 C.3     1  UNL1        0.0542
     27 C         138.5571  143.9333  165.5506 C.3     1  UNL1        0.0185
     28 C         138.0172  144.3278  164.2079 C.3     1  UNL1        0.0340
     29 C         138.8878  144.2271  162.9905 C.3     1  UNL1        0.1231
     30 O         137.6278  144.7504  162.3671 O.3     1  UNL1       -0.3812
     31 C         140.2981  143.7319  163.1159 C.3     1  UNL1        0.0340
     32 C         140.8380  143.3374  164.4586 C.3     1  UNL1        0.0185
     33 H         136.9527  144.8693  163.0534 H       1  UNL1        0.2107
     34 C         139.3207  144.3082  161.5566 C.ar    1  UNL1        0.0830
     35 C         140.1992  145.4353  161.1009 C.ar    1  UNL1        0.0172
     36 C         140.6321  145.5164  159.6670 C.ar    1  UNL1        0.0059
     37 C         140.1864  144.4702  158.6888 C.ar    1  UNL1        0.0549
     38 C         139.3079  143.3430  159.1444 C.ar    1  UNL1        0.1015
     39 N         138.8750  143.2620  160.5784 N.ar    1  UNL1       -0.2458
     40 C         140.6193  144.5512  157.2549 C.ar    1  UNL1        0.1638
     41 N         142.0578  144.8123  156.9193 N.ar    1  UNL1       -0.2250
     42 C         142.4907  144.8933  155.4854 C.ar    1  UNL1        0.1022
     43 C         141.4851  144.7133  154.3871 C.ar    1  UNL1        0.0414
     44 C         140.0465  144.4523  154.7227 C.ar    1  UNL1        0.1022
     45 N         139.6137  144.3712  156.1565 N.ar    1  UNL1       -0.2250
@<TRIPOS>BOND
     1     1     2    2
     2     2     8    1
     3     8     9    1
     4     9    10    1
     5    10    11    1
     6    11    14    1
     7    14    15   ar
     8    15    16   ar
     9    16    17   ar
    10    17    18   ar
    11    18    20    1
    12    20    21    1
    13    20    22    1
    14    20    23    1
    15    18    19   ar
    16    11    12    1
    17    12    13    1
    18     2     3   am
    19     3     4    1
    20     4     5    1
    21     5     6    1
    22     6    24    1
    23    26    24    1
    24    26    27    1
    25    27    28    1
    26    28    29    1
    27    29    30    1
    28    29    34    1
    29    34    35   ar
    30    35    36   ar
    31    36    37   ar
    32    37    40    1
    33    40    41   ar
    34    41    42   ar
    35    42    43   ar
    36    43    44   ar
    37    44    45   ar
    38    37    38   ar
    39    38    39   ar
    40    29    31    1
    41    31    32    1
    42     6     7    1
    43    13     8    1
    44     7     3    1
    45    19    14   ar
    46    32    26    1
    47    39    34   ar
    48    45    40   ar
    49    24    25    1
    50    30    33    1
@<TRIPOS>MOLECULE
*****
 45 50 0 0 0
SMALL
GASTEIGER

@<TRIPOS>ATOM
      1 O         144.1285  137.7224  166.7842 O.2     1  UNL1       -0.2749
      2 C         143.3596  138.7709  166.0362 C.2     1  UNL1        0.2253
      3 N         142.6176  139.8360  166.7878 N.am    1  UNL1       -0.2781
      4 C         142.5531  139.9800  168.2794 C.3     1  UNL1        0.0949
      5 C         141.7054  141.1770  168.5933 C.3     1  UNL1        0.0390
      6 C         141.2460  141.7729  167.2956 C.3     1  UNL1        0.0758
      7 C         141.8097  140.9440  166.1797 C.3     1  UNL1        0.1091
      8 C         143.3328  138.7543  164.5364 C.3     1  UNL1        0.0801
      9 C         142.2808  137.9662  163.8138 C.3     1  UNL1        0.0306
     10 C         142.2540  137.9497  162.3142 C.3     1  UNL1        0.0941
     11 N         143.2792  138.7211  161.5372 N.pl3   1  UNL1       -0.2782
     12 C         144.3312  139.5092  162.2598 C.3     1  UNL1        0.0941
     13 C         144.3580  139.5258  163.7594 C.3     1  UNL1        0.0306
     14 C         143.2524  138.7045  160.0374 C.ar    1  UNL1        0.2201
     15 N         142.5805  137.5768  159.3118 N.ar    1  UNL1       -0.2121
     16 C         142.5537  137.5601  157.8121 C.ar    1  UNL1        0.1033
     17 C         143.1988  138.6713  157.0381 C.ar    1  UNL1        0.0439
     18 C         143.8707  139.7992  157.7638 C.ar    1  UNL1        0.1570
     19 N         143.8975  139.8157  159.2635 N.ar    1  UNL1       -0.2096
     20 C         144.5159  140.9104  156.9898 C.3     1  UNL1        0.4350
     21 F         145.1610  142.0216  156.2159 F       1  UNL1       -0.1644
     22 F         144.5962  141.7348  158.2404 F       1  UNL1       -0.1644
     23 F         144.4356  140.0859  155.7393 F       1  UNL1       -0.1644
     24 N         140.3756  142.9847  167.1409 N.3     1  UNL1       -0.2982
     25 H         140.8962  143.7723  167.5270 H       1  UNL1        0.1232
     26 C         139.9061  143.4020  165.7789 C.3     1  UNL1        0.0542
     27 C         138.4997  143.8868  165.5864 C.3     1  UNL1        0.0185
     28 C         138.0301  144.3042  164.2243 C.3     1  UNL1        0.0340
     29 C         138.9669  144.2367  163.0547 C.3     1  UNL1        0.1231
     30 O         137.7376  144.7613  162.3739 O.3     1  UNL1       -0.3812
     31 C         140.3733  143.7518  163.2473 C.3     1  UNL1        0.0340
     32 C         140.8429  143.3345  164.6093 C.3     1  UNL1        0.0185
     33 H         137.0248  144.8598  163.0244 H       1  UNL1        0.2107
     34 C         139.4767  144.3514  161.6487 C.ar    1  UNL1        0.0830
     35 C         140.4841  145.4066  161.2999 C.ar    1  UNL1        0.0172
     36 C         140.9939  145.5213  159.8939 C.ar    1  UNL1        0.0059
     37 C         140.4963  144.5808  158.8365 C.ar    1  UNL1        0.0549
     38 C         139.4888  143.5256  159.1853 C.ar    1  UNL1        0.1015
     39 N         138.9790  143.4109  160.5914 N.ar    1  UNL1       -0.2458
     40 C         141.0061  144.6955  157.4306 C.ar    1  UNL1        0.1638
     41 N         142.0740  143.7627  156.9415 N.ar    1  UNL1       -0.2250
     42 C         142.5838  143.8774  155.5354 C.ar    1  UNL1        0.1022
     43 C         142.0256  144.9251  154.6185 C.ar    1  UNL1        0.0414
     44 C         140.9577  145.8580  155.1075 C.ar    1  UNL1        0.1022
     45 N         140.4479  145.7432  156.5135 N.ar    1  UNL1       -0.2250
@<TRIPOS>BOND
     1     1     2    2
     2     2     8    1
     3     8     9    1
     4     9    10    1
     5    10    11    1
     6    11    14    1
     7    14    15   ar
     8    15    16   ar
     9    16    17   ar
    10    17    18   ar
    11    18    20    1
    12    20    21    1
    13    20    22    1
    14    20    23    1
    15    18    19   ar
    16    11    12    1
    17    12    13    1
    18     2     3   am
    19     3     4    1
    20     4     5    1
    21     5     6    1
    22     6    24    1
    23    26    24    1
    24    26    27    1
    25    27    28    1
    26    28    29    1
    27    29    30    1
    28    29    34    1
    29    34    35   ar
    30    35    36   ar
    31    36    37   ar
    32    37    40    1
    33    40    41   ar
    34    41    42   ar
    35    42    43   ar
    36    43    44   ar
    37    44    45   ar
    38    37    38   ar
    39    38    39   ar
    40    29    31    1
    41    31    32    1
    42     6     7    1
    43    13     8    1
    44     7     3    1
    45    19    14   ar
    46    32    26    1
    47    39    34   ar
    48    45    40   ar
    49    24    25    1
    50    30    33    1
@<TRIPOS>MOLECULE
*****
 45 50 0 0 0
SMALL
GASTEIGER

@<TRIPOS>ATOM
      1 O         140.2165  146.4634  161.2445 O.2     1  UNL1       -0.2749
      2 C         139.9617  145.0238  160.9092 C.2     1  UNL1        0.2253
      3 N         139.9333  144.5811  159.4764 N.am    1  UNL1       -0.2781
      4 C         140.1413  145.4590  158.2781 C.3     1  UNL1        0.0949
      5 C         140.0285  144.6033  157.0513 C.3     1  UNL1        0.0390
      6 C         139.7507  143.1964  157.4914 C.3     1  UNL1        0.0758
      7 C         139.6918  143.1827  158.9902 C.3     1  UNL1        0.1091
      8 C         139.7353  144.0268  162.0069 C.3     1  UNL1        0.0801
      9 C         140.8871  143.2332  162.5486 C.3     1  UNL1        0.0306
     10 C         140.6607  142.2362  163.6462 C.3     1  UNL1        0.0941
     11 N         139.2825  142.0329  164.2021 N.pl3   1  UNL1       -0.2782
     12 C         138.1306  142.8265  163.6605 C.3     1  UNL1        0.0941
     13 C         138.3571  143.8234  162.5629 C.3     1  UNL1        0.0306
     14 C         139.0561  141.0359  165.2998 C.ar    1  UNL1        0.2201
     15 N         138.0990  139.8993  165.0950 N.ar    1  UNL1       -0.2121
     16 C         137.8726  138.9023  166.1927 C.ar    1  UNL1        0.1033
     17 C         138.6034  139.0420  167.4952 C.ar    1  UNL1        0.0439
     18 C         139.5605  140.1787  167.7000 C.ar    1  UNL1        0.1570
     19 N         139.7868  141.1756  166.6023 N.ar    1  UNL1       -0.2096
     20 C         140.2913  140.3184  169.0024 C.3     1  UNL1        0.4350
     21 F         141.0220  140.4581  170.3049 F       1  UNL1       -0.1644
     22 F         139.1615  141.1405  169.5481 F       1  UNL1       -0.1644
     23 F         141.4210  139.4963  168.4568 F       1  UNL1       -0.1644
     24 N         139.5644  142.0114  156.5909 N.3     1  UNL1       -0.2982
     25 H         139.9364  141.2022  157.0882 H       1  UNL1        0.1232
     26 C         138.1908  141.6360  156.1197 C.3     1  UNL1        0.0542
     27 C         137.8334  141.7681  154.6688 C.3     1  UNL1        0.0185
     28 C         136.4598  141.3928  154.1975 C.3     1  UNL1        0.0340
     29 C         135.4434  140.8853  155.1771 C.3     1  UNL1        0.1231
     30 O         134.6357  140.8351  153.9142 O.3     1  UNL1       -0.3812
     31 C         135.8008  140.7532  156.6279 C.3     1  UNL1        0.0340
     32 C         137.1744  141.1285  157.0992 C.3     1  UNL1        0.0185
     33 H         135.1776  141.1439  153.1713 H       1  UNL1        0.2107
     34 C         134.1465  140.3604  155.7180 C.ar    1  UNL1        0.0830
     35 C         132.9022  141.1924  155.6219 C.ar    1  UNL1        0.0172
     36 C         131.6053  140.6676  156.1628 C.ar    1  UNL1        0.0059
     37 C         131.5528  139.3105  156.7998 C.ar    1  UNL1        0.0549
     38 C         132.7971  138.4784  156.8959 C.ar    1  UNL1        0.1015
     39 N         134.0940  139.0034  156.3549 N.ar    1  UNL1       -0.2458
     40 C         130.2559  138.7856  157.3407 C.ar    1  UNL1        0.1638
     41 N         129.6786  137.5113  156.7997 N.ar    1  UNL1       -0.2250
     42 C         128.3817  136.9863  157.3406 C.ar    1  UNL1        0.1022
     43 C         127.6621  137.7359  158.4225 C.ar    1  UNL1        0.0414
     44 C         128.2394  139.0103  158.9635 C.ar    1  UNL1        0.1022
     45 N         129.5363  139.5351  158.4226 N.ar    1  UNL1       -0.2250
@<TRIPOS>BOND
     1     1     2    2
     2     2     8    1
     3     8     9    1
     4     9    10    1
     5    10    11    1
     6    11    14    1
     7    14    15   ar
     8    15    16   ar
     9    16    17   ar
    10    17    18   ar
    11    18    20    1
    12    20    21    1
    13    20    22    1
    14    20    23    1
    15    18    19   ar
    16    11    12    1
    17    12    13    1
    18     2     3   am
    19     3     4    1
    20     4     5    1
    21     5     6    1
    22     6    24    1
    23    26    24    1
    24    26    27    1
    25    27    28    1
    26    28    29    1
    27    29    30    1
    28    29    34    1
    29    34    35   ar
    30    35    36   ar
    31    36    37   ar
    32    37    40    1
    33    40    41   ar
    34    41    42   ar
    35    42    43   ar
    36    43    44   ar
    37    44    45   ar
    38    37    38   ar
    39    38    39   ar
    40    29    31    1
    41    31    32    1
    42     6     7    1
    43    13     8    1
    44     7     3    1
    45    19    14   ar
    46    32    26    1
    47    39    34   ar
    48    45    40   ar
    49    24    25    1
    50    30    33    1
@<TRIPOS>MOLECULE
*****
 45 50 0 0 0
SMALL
GASTEIGER

@<TRIPOS>ATOM
      1 O         141.9575  140.5199  154.9516 O.2     1  UNL1       -0.2749
      2 C         141.1653  139.6493  155.8813 C.2     1  UNL1        0.2253
      3 N         140.1388  140.2601  156.7887 N.am    1  UNL1       -0.2781
      4 C         139.7962  141.7177  156.8773 C.3     1  UNL1        0.0949
      5 C         138.7204  141.8790  157.9101 C.3     1  UNL1        0.0390
      6 C         138.3982  140.5210  158.4598 C.3     1  UNL1        0.0758
      7 C         139.2749  139.5205  157.7667 C.3     1  UNL1        0.1091
      8 C         141.3995  138.1678  155.9036 C.3     1  UNL1        0.0801
      9 C         142.4440  137.5872  156.8102 C.3     1  UNL1        0.0306
     10 C         142.6782  136.1058  156.8325 C.3     1  UNL1        0.0941
     11 N         141.8679  135.2050  155.9482 N.pl3   1  UNL1       -0.2782
     12 C         140.8234  135.7856  155.0416 C.3     1  UNL1        0.0941
     13 C         140.5892  137.2670  155.0194 C.3     1  UNL1        0.0306
     14 C         142.1021  133.7235  155.9705 C.ar    1  UNL1        0.2201
     15 N         141.2498  132.8167  155.1331 N.ar    1  UNL1       -0.2121
     16 C         141.4840  131.3353  155.1554 C.ar    1  UNL1        0.1033
     17 C         142.5706  130.7606  156.0152 C.ar    1  UNL1        0.0439
     18 C         143.4229  131.6675  156.8527 C.ar    1  UNL1        0.1570
     19 N         143.1886  133.1489  156.8303 N.ar    1  UNL1       -0.2096
     20 C         144.5094  131.0929  157.7125 C.3     1  UNL1        0.4350
     21 F         145.5959  130.5182  158.5723 F       1  UNL1       -0.1644
     22 F         143.5821  129.9993  158.1534 F       1  UNL1       -0.1644
     23 F         145.4367  132.1864  157.2715 F       1  UNL1       -0.1644
     24 N         137.3785  140.2170  159.5170 N.3     1  UNL1       -0.2982
     25 H         136.7467  139.5190  159.1246 H       1  UNL1        0.1232
     26 C         137.8167  139.7007  160.8554 C.3     1  UNL1        0.0542
     27 C         137.8229  138.2250  161.1246 C.3     1  UNL1        0.0185
     28 C         138.2611  137.7086  162.4630 C.3     1  UNL1        0.0340
     29 C         138.6931  138.6679  163.5322 C.3     1  UNL1        0.1231
     30 O         138.8708  137.3688  164.2606 O.3     1  UNL1       -0.3812
     31 C         138.6868  140.1436  163.2630 C.3     1  UNL1        0.0340
     32 C         138.2486  140.6599  161.9246 C.3     1  UNL1        0.0185
     33 H         138.6225  136.6345  163.6773 H       1  UNL1        0.2107
     34 C         139.1867  139.1759  164.8544 C.ar    1  UNL1        0.0830
     35 C         138.3321  139.0343  166.0789 C.ar    1  UNL1        0.0172
     36 C         138.8257  139.5423  167.4010 C.ar    1  UNL1        0.0059
     37 C         140.1742  140.1920  167.4988 C.ar    1  UNL1        0.0549
     38 C         141.0289  140.3338  166.2743 C.ar    1  UNL1        0.1015
     39 N         140.5352  139.8257  164.9521 N.ar    1  UNL1       -0.2458
     40 C         140.6678  140.7001  168.8209 C.ar    1  UNL1        0.1638
     41 N         141.9045  140.1142  169.4352 N.ar    1  UNL1       -0.2250
     42 C         142.3982  140.6222  170.7574 C.ar    1  UNL1        0.1022
     43 C         141.6551  141.7162  171.4653 C.ar    1  UNL1        0.0414
     44 C         140.4184  142.3021  170.8510 C.ar    1  UNL1        0.1022
     45 N         139.9248  141.7941  169.5289 N.ar    1  UNL1       -0.2250
@<TRIPOS>BOND
     1     1     2    2
     2     2     8    1
     3     8     9    1
     4     9    10    1
     5    10    11    1
     6    11    14    1
     7    14    15   ar
     8    15    16   ar
     9    16    17   ar
    10    17    18   ar
    11    18    20    1
    12    20    21    1
    13    20    22    1
    14    20    23    1
    15    18    19   ar
    16    11    12    1
    17    12    13    1
    18     2     3   am
    19     3     4    1
    20     4     5    1
    21     5     6    1
    22     6    24    1
    23    26    24    1
    24    26    27    1
    25    27    28    1
    26    28    29    1
    27    29    30    1
    28    29    34    1
    29    34    35   ar
    30    35    36   ar
    31    36    37   ar
    32    37    40    1
    33    40    41   ar
    34    41    42   ar
    35    42    43   ar
    36    43    44   ar
    37    44    45   ar
    38    37    38   ar
    39    38    39   ar
    40    29    31    1
    41    31    32    1
    42     6     7    1
    43    13     8    1
    44     7     3    1
    45    19    14   ar
    46    32    26    1
    47    39    34   ar
    48    45    40   ar
    49    24    25    1
    50    30    33    1
@<TRIPOS>MOLECULE
*****
 45 50 0 0 0
SMALL
GASTEIGER

@<TRIPOS>ATOM
      1 O         135.8107  139.2513  153.5282 O.2     1  UNL1       -0.2749
      2 C         135.5509  139.8606  154.8740 C.2     1  UNL1        0.2253
      3 N         136.6873  140.4263  155.6731 N.am    1  UNL1       -0.2781
      4 C         138.1286  140.4540  155.2588 C.3     1  UNL1        0.0949
      5 C         138.9140  141.1085  156.3564 C.3     1  UNL1        0.0390
      6 C         137.9579  141.4855  157.4492 C.3     1  UNL1        0.0758
      7 C         136.5818  141.0639  157.0268 C.3     1  UNL1        0.1091
      8 C         134.1547  139.9041  155.4208 C.3     1  UNL1        0.0801
      9 C         133.6416  138.7705  156.2584 C.3     1  UNL1        0.0306
     10 C         132.2455  138.8141  156.8050 C.3     1  UNL1        0.0941
     11 N         131.3625  139.9912  156.5141 N.pl3   1  UNL1       -0.2782
     12 C         131.8756  141.1248  155.6765 C.3     1  UNL1        0.0941
     13 C         133.2718  141.0813  155.1299 C.3     1  UNL1        0.0306
     14 C         129.9663  140.0348  157.0608 C.ar    1  UNL1        0.2201
     15 N         128.8481  140.5754  156.2199 N.ar    1  UNL1       -0.2121
     16 C         127.4519  140.6189  156.7666 C.ar    1  UNL1        0.1033
     17 C         127.1740  140.1218  158.1543 C.ar    1  UNL1        0.0439
     18 C         128.2924  139.5811  158.9953 C.ar    1  UNL1        0.1570
     19 N         129.6885  139.5376  158.4485 N.ar    1  UNL1       -0.2096
     20 C         128.0145  139.0840  160.3830 C.3     1  UNL1        0.4350
     21 F         127.7366  138.5869  161.7707 F       1  UNL1       -0.1644
     22 F         128.2880  137.6790  159.9344 F       1  UNL1       -0.1644
     23 F         127.7410  140.4890  160.8315 F       1  UNL1       -0.1644
     24 N         138.3153  142.1648  158.7379 N.3     1  UNL1       -0.2982
     25 H         137.6089  142.8829  158.8980 H       1  UNL1        0.1232
     26 C         138.4157  141.3665  160.0038 C.3     1  UNL1        0.0542
     27 C         137.8791  139.9666  160.0522 C.3     1  UNL1        0.0185
     28 C         137.9795  139.1682  161.3181 C.3     1  UNL1        0.0340
     29 C         138.6165  139.7697  162.5356 C.3     1  UNL1        0.1231
     30 O         138.2579  138.4154  163.0714 O.3     1  UNL1       -0.3812
     31 C         139.1531  141.1696  162.4872 C.3     1  UNL1        0.0340
     32 C         139.0528  141.9680  161.2213 C.3     1  UNL1        0.0185
     33 H         137.8247  137.8967  162.3756 H       1  UNL1        0.2107
     34 C         139.1290  139.9008  163.9392 C.ar    1  UNL1        0.0830
     35 C         138.3108  139.3887  165.0874 C.ar    1  UNL1        0.0172
     36 C         138.8232  139.5199  166.4909 C.ar    1  UNL1        0.0059
     37 C         140.1540  140.1632  166.7465 C.ar    1  UNL1        0.0549
     38 C         140.9723  140.6753  165.5983 C.ar    1  UNL1        0.1015
     39 N         140.4597  140.5441  164.1947 N.ar    1  UNL1       -0.2458
     40 C         140.6664  140.2943  168.1501 C.ar    1  UNL1        0.1638
     41 N         142.0645  140.7790  168.3959 N.ar    1  UNL1       -0.2250
     42 C         142.5770  140.9101  169.7996 C.ar    1  UNL1        0.1022
     43 C         141.6913  140.5565  170.9574 C.ar    1  UNL1        0.0414
     44 C         140.2932  140.0718  170.7116 C.ar    1  UNL1        0.1022
     45 N         139.7808  139.9407  169.3080 N.ar    1  UNL1       -0.2250
@<TRIPOS>BOND
     1     1     2    2
     2     2     8    1
     3     8     9    1
     4     9    10    1
     5    10    11    1
     6    11    14    1
     7    14    15   ar
     8    15    16   ar
     9    16    17   ar
    10    17    18   ar
    11    18    20    1
    12    20    21    1
    13    20    22    1
    14    20    23    1
    15    18    19   ar
    16    11    12    1
    17    12    13    1
    18     2     3   am
    19     3     4    1
    20     4     5    1
    21     5     6    1
    22     6    24    1
    23    26    24    1
    24    26    27    1
    25    27    28    1
    26    28    29    1
    27    29    30    1
    28    29    34    1
    29    34    35   ar
    30    35    36   ar
    31    36    37   ar
    32    37    40    1
    33    40    41   ar
    34    41    42   ar
    35    42    43   ar
    36    43    44   ar
    37    44    45   ar
    38    37    38   ar
    39    38    39   ar
    40    29    31    1
    41    31    32    1
    42     6     7    1
    43    13     8    1
    44     7     3    1
    45    19    14   ar
    46    32    26    1
    47    39    34   ar
    48    45    40   ar
    49    24    25    1
    50    30    33    1
@<TRIPOS>MOLECULE
*****
 45 50 0 0 0
SMALL
GASTEIGER

@<TRIPOS>ATOM
      1 O         144.9033  137.8441  155.7147 O.2     1  UNL1       -0.2749
      2 C         143.6023  137.1878  156.0705 C.2     1  UNL1        0.2253
      3 N         142.5770  137.9382  156.8677 N.am    1  UNL1       -0.2781
      4 C         142.7108  139.3430  157.3763 C.3     1  UNL1        0.0949
      5 C         141.4544  139.6886  158.1192 C.3     1  UNL1        0.0390
      6 C         140.5440  138.4974  158.0698 C.3     1  UNL1        0.0758
      7 C         141.2379  137.4156  157.2963 C.3     1  UNL1        0.1091
      8 C         143.3266  135.7809  155.6291 C.3     1  UNL1        0.0801
      9 C         143.7624  134.6277  156.4836 C.3     1  UNL1        0.0306
     10 C         143.4867  133.2209  156.0421 C.3     1  UNL1        0.0941
     11 N         142.7752  132.9673  154.7462 N.pl3   1  UNL1       -0.2782
     12 C         142.3394  134.1205  153.8917 C.3     1  UNL1        0.0941
     13 C         142.6151  135.5273  154.3331 C.3     1  UNL1        0.0306
     14 C         142.4995  131.5605  154.3047 C.ar    1  UNL1        0.2201
     15 N         143.3471  130.9286  153.2407 N.ar    1  UNL1       -0.2121
     16 C         143.0714  129.5217  152.7992 C.ar    1  UNL1        0.1033
     17 C         141.9481  128.7468  153.4219 C.ar    1  UNL1        0.0439
     18 C         141.1005  129.3787  154.4861 C.ar    1  UNL1        0.1570
     19 N         141.3763  130.7855  154.9275 N.ar    1  UNL1       -0.2096
     20 C         139.9773  128.6038  155.1088 C.3     1  UNL1        0.4350
     21 F         138.8540  127.8289  155.7315 F       1  UNL1       -0.1644
     22 F         139.2257  129.8808  155.3422 F       1  UNL1       -0.1644
     23 F         140.7288  127.3268  154.8754 F       1  UNL1       -0.1644
     24 N         139.1795  138.4044  158.6857 N.3     1  UNL1       -0.2982
     25 H         138.9599  137.4116  158.7664 H       1  UNL1        0.1232
     26 C         138.9205  139.0158  160.0307 C.3     1  UNL1        0.0542
     27 C         137.7275  139.9020  160.2345 C.3     1  UNL1        0.0185
     28 C         137.4683  140.5134  161.5795 C.3     1  UNL1        0.0340
     29 C         138.4022  140.2387  162.7207 C.3     1  UNL1        0.1231
     30 O         137.4145  141.1378  163.4031 O.3     1  UNL1       -0.3812
     31 C         139.5952  139.3525  162.5169 C.3     1  UNL1        0.0340
     32 C         139.8543  138.7411  161.1719 C.3     1  UNL1        0.0185
     33 H         136.7296  141.4051  162.7703 H       1  UNL1        0.2107
     34 C         138.9931  140.2763  164.0990 C.ar    1  UNL1        0.0830
     35 C         138.3552  139.4961  165.2100 C.ar    1  UNL1        0.0172
     36 C         138.9460  139.5337  166.5882 C.ar    1  UNL1        0.0059
     37 C         140.1747  140.3515  166.8554 C.ar    1  UNL1        0.0549
     38 C         140.8127  141.1317  165.7444 C.ar    1  UNL1        0.1015
     39 N         140.2218  141.0941  164.3661 N.ar    1  UNL1       -0.2458
     40 C         140.7655  140.3891  168.2336 C.ar    1  UNL1        0.1638
     41 N         139.9740  139.8833  169.4030 N.ar    1  UNL1       -0.2250
     42 C         140.5649  139.9209  170.7813 C.ar    1  UNL1        0.1022
     43 C         141.9473  140.4643  170.9900 C.ar    1  UNL1        0.0414
     44 C         142.7389  140.9702  169.8206 C.ar    1  UNL1        0.1022
     45 N         142.1480  140.9326  168.4424 N.ar    1  UNL1       -0.2250
@<TRIPOS>BOND
     1     1     2    2
     2     2     8    1
     3     8     9    1
     4     9    10    1
     5    10    11    1
     6    11    14    1
     7    14    15   ar
     8    15    16   ar
     9    16    17   ar
    10    17    18   ar
    11    18    20    1
    12    20    21    1
    13    20    22    1
    14    20    23    1
    15    18    19   ar
    16    11    12    1
    17    12    13    1
    18     2     3   am
    19     3     4    1
    20     4     5    1
    21     5     6    1
    22     6    24    1
    23    26    24    1
    24    26    27    1
    25    27    28    1
    26    28    29    1
    27    29    30    1
    28    29    34    1
    29    34    35   ar
    30    35    36   ar
    31    36    37   ar
    32    37    40    1
    33    40    41   ar
    34    41    42   ar
    35    42    43   ar
    36    43    44   ar
    37    44    45   ar
    38    37    38   ar
    39    38    39   ar
    40    29    31    1
    41    31    32    1
    42     6     7    1
    43    13     8    1
    44     7     3    1
    45    19    14   ar
    46    32    26    1
    47    39    34   ar
    48    45    40   ar
    49    24    25    1
    50    30    33    1
