@<TRIPOS>MOLECULE
*****
 36 40 0 0 0
SMALL
GASTEIGER

@<TRIPOS>ATOM
      1 C         138.6756  142.7904  163.8494 C.3     1  UNL1        0.1909
      2 C         139.7655  143.7973  164.0689 C.3     1  UNL1        0.1783
      3 O         140.5285  143.3946  165.2960 O.3     1  UNL1       -0.3267
      4 C         139.9100  142.1387  165.8349 C.3     1  UNL1        0.2296
      5 O         138.7649  141.7653  164.9409 O.3     1  UNL1       -0.3255
      6 C         140.9722  142.2547  166.8875 C.ar    1  UNL1        0.0409
      7 C         140.5990  142.6276  168.2917 C.ar    1  UNL1        0.0022
      8 C         141.6613  142.7436  169.3445 C.ar    1  UNL1        0.0113
      9 C         143.0967  142.4866  168.9930 C.ar    1  UNL1        0.0585
     10 CL        144.1589  142.6025  170.0457 Cl      1  UNL1       -0.0822
     11 C         143.4699  142.1136  167.5888 C.ar    1  UNL1        0.0226
     12 C         142.4077  141.9976  166.5362 C.ar    1  UNL1        0.0591
     13 CL        142.7808  141.6247  165.1320 Cl      1  UNL1       -0.0824
     14 C         137.6725  142.8058  162.7342 C.3     1  UNL1        0.2374
     15 O         137.1452  141.5148  162.1819 O.3     1  UNL1       -0.4727
     16 C         139.6059  139.1507  159.2483 C.ar    1  UNL1        0.0481
     17 C         139.1619  140.5417  158.9053 C.ar    1  UNL1        0.0176
     18 C         138.3417  141.3298  159.8832 C.ar    1  UNL1        0.0382
     19 C         137.9654  140.7268  161.2040 C.ar    1  UNL1        0.1388
     20 C         138.4094  139.3357  161.5471 C.ar    1  UNL1        0.0382
     21 C         139.2297  138.5476  160.5692 C.ar    1  UNL1        0.0176
     22 C         142.2253  135.3372  154.1644 C.3     1  UNL1        0.0948
     23 C         142.8869  135.9984  155.3370 C.2     1  UNL1        0.2262
     24 O         144.3687  135.8716  155.5317 O.2     1  UNL1       -0.2749
     25 N         142.0666  136.7865  156.3148 N.am    1  UNL1       -0.2760
     26 C         140.5848  136.9133  156.1201 C.3     1  UNL1        0.1148
     27 C         139.7645  137.7014  157.0979 C.3     1  UNL1        0.1123
     28 N         140.4262  138.3626  158.2705 N.pl3   1  UNL1       -0.3041
     29 C         141.9080  138.2358  158.4652 C.3     1  UNL1        0.1123
     30 C         142.7283  137.4478  157.4874 C.3     1  UNL1        0.1148
     31 C         139.5136  140.9070  166.5938 C.3     1  UNL1        0.1682
     32 N         139.5187  139.5713  165.9113 N.ar    1  UNL1       -0.3025
     33 C         140.6887  138.9411  165.2159 C.ar    1  UNL1        0.0982
     34 C         140.2478  137.6116  164.6792 C.ar    1  UNL1        0.1193
     35 N         138.8053  137.4202  165.0430 N.ar    1  UNL1       -0.2223
     36 C         138.3547  138.6314  165.8046 C.ar    1  UNL1        0.1788
@<TRIPOS>BOND
     1    22    23    1
     2    23    24    2
     3    23    25   am
     4    25    26    1
     5    26    27    1
     6    27    28    1
     7    28    16    1
     8    16    17   ar
     9    17    18   ar
    10    18    19   ar
    11    19    15    1
    12    15    14    1
    13     1    14    1
    14     1     2    1
    15     2     3    1
    16     3     4    1
    17     4    31    1
    18    31    32    1
    19    32    33   ar
    20    33    34   ar
    21    34    35   ar
    22    35    36   ar
    23     4     6    1
    24     6     7   ar
    25     7     8   ar
    26     8     9   ar
    27     9    10    1
    28     9    11   ar
    29    11    12   ar
    30    12    13    1
    31     4     5    1
    32    19    20   ar
    33    20    21   ar
    34    28    29    1
    35    29    30    1
    36    30    25    1
    37    21    16   ar
    38     5     1    1
    39    36    32   ar
    40    12     6   ar
@<TRIPOS>MOLECULE
*****
 36 40 0 0 0
SMALL
GASTEIGER

@<TRIPOS>ATOM
      1 C         143.1154  142.7742  164.5722 C.3     1  UNL1        0.1909
      2 C         143.3244  141.3600  165.0263 C.3     1  UNL1        0.1783
      3 O         141.9949  140.8068  165.4466 O.3     1  UNL1       -0.3267
      4 C         140.9643  141.8793  165.2524 C.3     1  UNL1        0.2296
      5 O         141.6568  143.0952  164.7120 O.3     1  UNL1       -0.3255
      6 C         140.0150  140.8423  165.7750 C.ar    1  UNL1        0.0409
      7 C         139.2759  139.9527  164.8197 C.ar    1  UNL1        0.0022
      8 C         138.3264  138.9156  165.3423 C.ar    1  UNL1        0.0113
      9 C         138.1161  138.7682  166.8202 C.ar    1  UNL1        0.0585
     10 CL        137.1666  137.7311  167.3428 Cl      1  UNL1       -0.0822
     11 C         138.8552  139.6578  167.7754 C.ar    1  UNL1        0.0226
     12 C         139.8045  140.6948  167.2528 C.ar    1  UNL1        0.0591
     13 CL        140.5436  141.5843  168.2080 Cl      1  UNL1       -0.0824
     14 C         144.1784  143.7043  164.0671 C.3     1  UNL1        0.2374
     15 O         144.4911  143.7604  162.6012 O.3     1  UNL1       -0.4727
     16 C         142.5531  140.8448  159.7740 C.ar    1  UNL1        0.0481
     17 C         141.9395  142.1954  159.9954 C.ar    1  UNL1        0.0176
     18 C         142.5855  143.1673  160.9378 C.ar    1  UNL1        0.0382
     19 C         143.8451  142.7885  161.6588 C.ar    1  UNL1        0.1388
     20 C         144.4587  141.4378  161.4373 C.ar    1  UNL1        0.0382
     21 C         143.8127  140.4660  160.4949 C.ar    1  UNL1        0.0176
     22 C         140.8140  135.9916  155.2273 C.3     1  UNL1        0.0948
     23 C         139.9692  136.9572  156.0043 C.2     1  UNL1        0.2262
     24 O         138.4784  136.9510  155.8389 O.2     1  UNL1       -0.2749
     25 N         140.6152  137.9291  156.9467 N.am    1  UNL1       -0.2760
     26 C         142.1060  137.9354  157.1121 C.3     1  UNL1        0.1148
     27 C         142.7520  138.9072  158.0545 C.3     1  UNL1        0.1123
     28 N         141.9071  139.8729  158.8315 N.pl3   1  UNL1       -0.3041
     29 C         140.4163  139.8666  158.6661 C.3     1  UNL1        0.1123
     30 C         139.7704  138.8947  157.7237 C.3     1  UNL1        0.1148
     31 C         139.7353  142.7350  165.1674 C.3     1  UNL1        0.1682
     32 N         139.3590  143.3802  163.8665 N.ar    1  UNL1       -0.3025
     33 C         139.1948  142.6802  162.5502 C.ar    1  UNL1        0.0982
     34 C         138.8153  143.7061  161.5238 C.ar    1  UNL1        0.1193
     35 N         138.7449  145.0402  162.2059 N.ar    1  UNL1       -0.2223
     36 C         139.0809  144.8388  163.6538 C.ar    1  UNL1        0.1788
@<TRIPOS>BOND
     1    22    23    1
     2    23    24    2
     3    23    25   am
     4    25    26    1
     5    26    27    1
     6    27    28    1
     7    28    16    1
     8    16    17   ar
     9    17    18   ar
    10    18    19   ar
    11    19    15    1
    12    15    14    1
    13     1    14    1
    14     1     2    1
    15     2     3    1
    16     3     4    1
    17     4    31    1
    18    31    32    1
    19    32    33   ar
    20    33    34   ar
    21    34    35   ar
    22    35    36   ar
    23     4     6    1
    24     6     7   ar
    25     7     8   ar
    26     8     9   ar
    27     9    10    1
    28     9    11   ar
    29    11    12   ar
    30    12    13    1
    31     4     5    1
    32    19    20   ar
    33    20    21   ar
    34    28    29    1
    35    29    30    1
    36    30    25    1
    37    21    16   ar
    38     5     1    1
    39    36    32   ar
    40    12     6   ar
@<TRIPOS>MOLECULE
*****
 36 40 0 0 0
SMALL
GASTEIGER

@<TRIPOS>ATOM
      1 C         143.2452  143.0590  164.0377 C.3     1  UNL1        0.1909
      2 C         143.6969  141.9696  164.9646 C.3     1  UNL1        0.1783
      3 O         142.6046  141.7290  165.9642 O.3     1  UNL1       -0.3267
      4 C         141.4779  142.6697  165.6549 C.3     1  UNL1        0.2296
      5 O         141.8737  143.4917  164.4643 O.3     1  UNL1       -0.3255
      6 C         140.8176  142.0159  166.8323 C.ar    1  UNL1        0.0409
      7 C         140.7556  142.7304  168.1499 C.ar    1  UNL1        0.0022
      8 C         140.0953  142.0765  169.3273 C.ar    1  UNL1        0.0113
      9 C         139.4970  140.7082  169.1873 C.ar    1  UNL1        0.0585
     10 CL        138.8366  140.0543  170.3648 Cl      1  UNL1       -0.0822
     11 C         139.5589  139.9936  167.8698 C.ar    1  UNL1        0.0226
     12 C         140.2192  140.6475  166.6924 C.ar    1  UNL1        0.0591
     13 CL        140.2811  139.9331  165.3750 Cl      1  UNL1       -0.0824
     14 C         144.0276  143.6176  162.8862 C.3     1  UNL1        0.2374
     15 O         143.3667  144.5451  161.9100 O.3     1  UNL1       -0.4727
     16 C         140.1057  143.0190  159.2106 C.ar    1  UNL1        0.0481
     17 C         141.1320  142.0713  159.7568 C.ar    1  UNL1        0.0176
     18 C         142.2190  142.5800  160.6566 C.ar    1  UNL1        0.0382
     19 C         142.2797  144.0364  161.0102 C.ar    1  UNL1        0.1388
     20 C         141.2534  144.9841  160.4640 C.ar    1  UNL1        0.0382
     21 C         140.1664  144.4755  159.5642 C.ar    1  UNL1        0.0176
     22 C         135.3600  141.7702  154.3972 C.3     1  UNL1        0.0948
     23 C         135.7577  140.9843  155.6114 C.2     1  UNL1        0.2262
     24 O         135.0683  139.6897  155.9257 O.2     1  UNL1       -0.2749
     25 N         136.8447  141.4930  156.5112 N.am    1  UNL1       -0.2760
     26 C         137.5340  142.7875  156.1968 C.3     1  UNL1        0.1148
     27 C         138.6210  143.2962  157.0966 C.3     1  UNL1        0.1123
     28 N         139.0187  142.5103  158.3108 N.pl3   1  UNL1       -0.3041
     29 C         138.3293  141.2158  158.6251 C.3     1  UNL1        0.1123
     30 C         137.2423  140.7071  157.7253 C.3     1  UNL1        0.1148
     31 C         140.2131  143.4738  165.5918 C.3     1  UNL1        0.1682
     32 N         139.3962  143.4894  164.3338 N.ar    1  UNL1       -0.3025
     33 C         139.1305  142.3142  163.4405 C.ar    1  UNL1        0.0982
     34 C         138.2717  142.7814  162.3029 C.ar    1  UNL1        0.1193
     35 N         138.0067  144.2455  162.4932 N.ar    1  UNL1       -0.2223
     36 C         138.7017  144.6830  163.7484 C.ar    1  UNL1        0.1788
@<TRIPOS>BOND
     1    22    23    1
     2    23    24    2
     3    23    25   am
     4    25    26    1
     5    26    27    1
     6    27    28    1
     7    28    16    1
     8    16    17   ar
     9    17    18   ar
    10    18    19   ar
    11    19    15    1
    12    15    14    1
    13     1    14    1
    14     1     2    1
    15     2     3    1
    16     3     4    1
    17     4    31    1
    18    31    32    1
    19    32    33   ar
    20    33    34   ar
    21    34    35   ar
    22    35    36   ar
    23     4     6    1
    24     6     7   ar
    25     7     8   ar
    26     8     9   ar
    27     9    10    1
    28     9    11   ar
    29    11    12   ar
    30    12    13    1
    31     4     5    1
    32    19    20   ar
    33    20    21   ar
    34    28    29    1
    35    29    30    1
    36    30    25    1
    37    21    16   ar
    38     5     1    1
    39    36    32   ar
    40    12     6   ar
@<TRIPOS>MOLECULE
*****
 36 40 0 0 0
SMALL
GASTEIGER

@<TRIPOS>ATOM
      1 C         143.8708  140.4674  163.8919 C.3     1  UNL1        0.1909
      2 C         143.8170  139.5642  165.0883 C.3     1  UNL1        0.1783
      3 O         142.3749  139.2991  165.4046 O.3     1  UNL1       -0.3267
      4 C         141.5374  140.0384  164.4037 C.3     1  UNL1        0.2296
      5 O         142.4618  140.7604  163.4687 O.3     1  UNL1       -0.3255
      6 C         140.3876  139.4450  165.1624 C.ar    1  UNL1        0.0409
      7 C         139.8893  140.1109  166.4108 C.ar    1  UNL1        0.0022
      8 C         138.7395  139.5175  167.1696 C.ar    1  UNL1        0.0113
      9 C         138.0880  138.2582  166.6801 C.ar    1  UNL1        0.0585
     10 CL        136.9382  137.6648  167.4389 Cl      1  UNL1       -0.0822
     11 C         138.5863  137.5922  165.4317 C.ar    1  UNL1        0.0226
     12 C         139.7360  138.1856  164.6730 C.ar    1  UNL1        0.0591
     13 CL        140.2343  137.5197  163.4247 Cl      1  UNL1       -0.0824
     14 C         145.1150  140.9864  163.2342 C.3     1  UNL1        0.2374
     15 O         145.1719  142.4053  162.7511 O.3     1  UNL1       -0.4727
     16 C         142.2976  143.8238  159.5925 C.ar    1  UNL1        0.0481
     17 C         143.3644  142.8288  159.2434 C.ar    1  UNL1        0.0176
     18 C         144.3225  142.3559  160.2963 C.ar    1  UNL1        0.0382
     19 C         144.2138  142.8781  161.6982 C.ar    1  UNL1        0.1388
     20 C         143.1471  143.8732  162.0473 C.ar    1  UNL1        0.0382
     21 C         142.1890  144.3460  160.9945 C.ar    1  UNL1        0.0176
     22 C         137.4959  144.7524  154.7623 C.3     1  UNL1        0.0948
     23 C         138.4653  145.7153  155.3812 C.2     1  UNL1        0.2262
     24 O         138.4766  147.1510  154.9472 O.2     1  UNL1       -0.2749
     25 N         139.4234  145.2424  156.4340 N.am    1  UNL1       -0.2760
     26 C         139.4121  143.8066  156.8680 C.3     1  UNL1        0.1148
     27 C         140.3702  143.3338  157.9208 C.3     1  UNL1        0.1123
     28 N         141.3396  144.2967  158.5397 N.pl3   1  UNL1       -0.3041
     29 C         141.3509  145.7325  158.1057 C.3     1  UNL1        0.1123
     30 C         140.3928  146.2053  157.0529 C.3     1  UNL1        0.1148
     31 C         140.4594  140.6537  163.5612 C.3     1  UNL1        0.1682
     32 N         140.1748  142.1229  163.6629 N.ar    1  UNL1       -0.3025
     33 C         140.7286  143.0588  164.6959 C.ar    1  UNL1        0.0982
     34 C         140.1825  144.4285  164.4207 C.ar    1  UNL1        0.1193
     35 N         139.2911  144.3390  163.2177 N.ar    1  UNL1       -0.2223
     36 C         139.2864  142.9141  162.7493 C.ar    1  UNL1        0.1788
@<TRIPOS>BOND
     1    22    23    1
     2    23    24    2
     3    23    25   am
     4    25    26    1
     5    26    27    1
     6    27    28    1
     7    28    16    1
     8    16    17   ar
     9    17    18   ar
    10    18    19   ar
    11    19    15    1
    12    15    14    1
    13     1    14    1
    14     1     2    1
    15     2     3    1
    16     3     4    1
    17     4    31    1
    18    31    32    1
    19    32    33   ar
    20    33    34   ar
    21    34    35   ar
    22    35    36   ar
    23     4     6    1
    24     6     7   ar
    25     7     8   ar
    26     8     9   ar
    27     9    10    1
    28     9    11   ar
    29    11    12   ar
    30    12    13    1
    31     4     5    1
    32    19    20   ar
    33    20    21   ar
    34    28    29    1
    35    29    30    1
    36    30    25    1
    37    21    16   ar
    38     5     1    1
    39    36    32   ar
    40    12     6   ar
@<TRIPOS>MOLECULE
*****
 36 40 0 0 0
SMALL
GASTEIGER

@<TRIPOS>ATOM
      1 C         138.7089  143.1430  164.1550 C.3     1  UNL1        0.1909
      2 C         139.5933  143.8031  165.1709 C.3     1  UNL1        0.1783
      3 O         140.1195  142.7395  166.0885 O.3     1  UNL1       -0.3267
      4 C         139.5603  141.4220  165.6396 C.3     1  UNL1        0.2296
      5 O         138.6885  141.6713  164.4447 O.3     1  UNL1       -0.3255
      6 C         140.3496  140.8732  166.7909 C.ar    1  UNL1        0.0409
      7 C         139.6459  140.4314  168.0398 C.ar    1  UNL1        0.0022
      8 C         140.4353  139.8826  169.1913 C.ar    1  UNL1        0.0113
      9 C         141.9283  139.7756  169.0938 C.ar    1  UNL1        0.0585
     10 CL        142.7177  139.2268  170.2452 Cl      1  UNL1       -0.0822
     11 C         142.6320  140.2174  167.8449 C.ar    1  UNL1        0.0226
     12 C         141.8426  140.7662  166.6935 C.ar    1  UNL1        0.0591
     13 CL        142.5462  141.2080  165.4447 Cl      1  UNL1       -0.0824
     14 C         137.9739  143.8333  163.0445 C.3     1  UNL1        0.2374
     15 O         138.6428  144.0414  161.7181 O.3     1  UNL1       -0.4727
     16 C         140.1285  140.5032  159.3678 C.ar    1  UNL1        0.0481
     17 C         138.7211  140.5216  159.8864 C.ar    1  UNL1        0.0176
     18 C         138.2259  141.7010  160.6698 C.ar    1  UNL1        0.0382
     19 C         139.1381  142.8620  160.9347 C.ar    1  UNL1        0.1388
     20 C         140.5454  142.8435  160.4161 C.ar    1  UNL1        0.0382
     21 C         141.0406  141.6641  159.6326 C.ar    1  UNL1        0.0176
     22 C         143.5140  135.2951  156.4243 C.3     1  UNL1        0.0948
     23 C         142.1093  135.7856  156.2339 C.2     1  UNL1        0.2262
     24 O         141.1999  135.0968  155.2601 O.2     1  UNL1       -0.2749
     25 N         141.6141  136.9650  157.0174 N.am    1  UNL1       -0.2760
     26 C         142.5236  137.6539  157.9912 C.3     1  UNL1        0.1148
     27 C         142.0283  138.8333  158.7747 C.3     1  UNL1        0.1123
     28 N         140.6237  139.3238  158.5843 N.pl3   1  UNL1       -0.3041
     29 C         139.7143  138.6350  157.6105 C.3     1  UNL1        0.1123
     30 C         140.2095  137.4556  156.8270 C.3     1  UNL1        0.1148
     31 C         139.1660  139.9897  165.4314 C.3     1  UNL1        0.1682
     32 N         139.9132  139.1419  164.4450 N.ar    1  UNL1       -0.3025
     33 C         140.3193  137.7114  164.6415 C.ar    1  UNL1        0.0982
     34 C         141.0425  137.2612  163.4069 C.ar    1  UNL1        0.1193
     35 N         141.0833  138.4134  162.4473 N.ar    1  UNL1       -0.2223
     36 C         140.3853  139.5757  163.0889 C.ar    1  UNL1        0.1788
@<TRIPOS>BOND
     1    22    23    1
     2    23    24    2
     3    23    25   am
     4    25    26    1
     5    26    27    1
     6    27    28    1
     7    28    16    1
     8    16    17   ar
     9    17    18   ar
    10    18    19   ar
    11    19    15    1
    12    15    14    1
    13     1    14    1
    14     1     2    1
    15     2     3    1
    16     3     4    1
    17     4    31    1
    18    31    32    1
    19    32    33   ar
    20    33    34   ar
    21    34    35   ar
    22    35    36   ar
    23     4     6    1
    24     6     7   ar
    25     7     8   ar
    26     8     9   ar
    27     9    10    1
    28     9    11   ar
    29    11    12   ar
    30    12    13    1
    31     4     5    1
    32    19    20   ar
    33    20    21   ar
    34    28    29    1
    35    29    30    1
    36    30    25    1
    37    21    16   ar
    38     5     1    1
    39    36    32   ar
    40    12     6   ar
@<TRIPOS>MOLECULE
*****
 36 40 0 0 0
SMALL
GASTEIGER

@<TRIPOS>ATOM
      1 C         141.9820  143.9391  164.2698 C.3     1  UNL1        0.1909
      2 C         140.4870  144.0147  164.3666 C.3     1  UNL1        0.1783
      3 O         139.9995  142.7499  165.0090 O.3     1  UNL1       -0.3267
      4 C         141.1932  141.8926  165.3092 C.3     1  UNL1        0.2296
      5 O         142.4185  142.6275  164.8524 O.3     1  UNL1       -0.3255
      6 C         140.1730  140.9367  165.8525 C.ar    1  UNL1        0.0409
      7 C         140.0913  140.6864  167.3293 C.ar    1  UNL1        0.0022
      8 C         139.0710  139.7304  167.8726 C.ar    1  UNL1        0.0113
      9 C         138.1324  139.0248  166.9393 C.ar    1  UNL1        0.0585
     10 CL        137.1122  138.0688  167.4826 Cl      1  UNL1       -0.0822
     11 C         138.2141  139.2751  165.4625 C.ar    1  UNL1        0.0226
     12 C         139.2344  140.2310  164.9192 C.ar    1  UNL1        0.0591
     13 CL        139.3161  140.4813  163.4425 Cl      1  UNL1       -0.0824
     14 C         142.8824  144.9904  163.6920 C.3     1  UNL1        0.2374
     15 O         143.4712  144.8048  162.3249 O.3     1  UNL1       -0.4727
     16 C         141.9884  141.4898  159.6675 C.ar    1  UNL1        0.0481
     17 C         141.2145  142.7705  159.7717 C.ar    1  UNL1        0.0176
     18 C         141.7088  143.8755  160.6575 C.ar    1  UNL1        0.0382
     19 C         142.9769  143.6998  161.4391 C.ar    1  UNL1        0.1388
     20 C         143.7508  142.4191  161.3349 C.ar    1  UNL1        0.0382
     21 C         143.2565  141.3141  160.4491 C.ar    1  UNL1        0.0176
     22 C         140.9825  136.0924  155.5316 C.3     1  UNL1        0.0948
     23 C         140.0113  137.0698  156.1243 C.2     1  UNL1        0.2262
     24 O         138.5458  136.9423  155.8311 O.2     1  UNL1       -0.2749
     25 N         140.5055  138.1748  157.0101 N.am    1  UNL1       -0.2760
     26 C         141.9710  138.3024  157.3032 C.3     1  UNL1        0.1148
     27 C         142.4653  139.4074  158.1890 C.3     1  UNL1        0.1123
     28 N         141.4941  140.3848  158.7817 N.pl3   1  UNL1       -0.3041
     29 C         140.0286  140.2573  158.4885 C.3     1  UNL1        0.1123
     30 C         139.5343  139.1523  157.6027 C.3     1  UNL1        0.1148
     31 C         142.1737  140.8354  165.7230 C.3     1  UNL1        0.1682
     32 N         143.0089  140.1408  164.6886 N.ar    1  UNL1       -0.3025
     33 C         142.5048  139.1996  163.6352 C.ar    1  UNL1        0.0982
     34 C         143.6792  138.7426  162.8216 C.ar    1  UNL1        0.1193
     35 N         144.9091  139.4015  163.3723 N.ar    1  UNL1       -0.2223
     36 C         144.4948  140.2656  164.5262 C.ar    1  UNL1        0.1788
@<TRIPOS>BOND
     1    22    23    1
     2    23    24    2
     3    23    25   am
     4    25    26    1
     5    26    27    1
     6    27    28    1
     7    28    16    1
     8    16    17   ar
     9    17    18   ar
    10    18    19   ar
    11    19    15    1
    12    15    14    1
    13     1    14    1
    14     1     2    1
    15     2     3    1
    16     3     4    1
    17     4    31    1
    18    31    32    1
    19    32    33   ar
    20    33    34   ar
    21    34    35   ar
    22    35    36   ar
    23     4     6    1
    24     6     7   ar
    25     7     8   ar
    26     8     9   ar
    27     9    10    1
    28     9    11   ar
    29    11    12   ar
    30    12    13    1
    31     4     5    1
    32    19    20   ar
    33    20    21   ar
    34    28    29    1
    35    29    30    1
    36    30    25    1
    37    21    16   ar
    38     5     1    1
    39    36    32   ar
    40    12     6   ar
@<TRIPOS>MOLECULE
*****
 36 40 0 0 0
SMALL
GASTEIGER

@<TRIPOS>ATOM
      1 C         139.0733  143.1277  164.1999 C.3     1  UNL1        0.1909
      2 C         138.7161  141.6832  164.3891 C.3     1  UNL1        0.1783
      3 O         139.9181  140.9771  164.9430 O.3     1  UNL1       -0.3267
      4 C         141.0182  141.9852  165.0960 C.3     1  UNL1        0.2296
      5 O         140.4962  143.3144  164.6368 O.3     1  UNL1       -0.3255
      6 C         141.8046  140.8158  165.6097 C.ar    1  UNL1        0.0409
      7 C         142.1512  140.7268  167.0664 C.ar    1  UNL1        0.0022
      8 C         142.9376  139.5573  167.5801 C.ar    1  UNL1        0.0113
      9 C         143.3774  138.4768  166.6371 C.ar    1  UNL1        0.0585
     10 CL        144.1638  137.3073  167.1508 Cl      1  UNL1       -0.0822
     11 C         143.0307  138.5658  165.1804 C.ar    1  UNL1        0.0226
     12 C         142.2443  139.7353  164.6667 C.ar    1  UNL1        0.0591
     13 CL        141.8977  139.8243  163.2101 Cl      1  UNL1       -0.0824
     14 C         138.1670  144.1977  163.6673 C.3     1  UNL1        0.2374
     15 O         138.2298  144.5812  162.2186 O.3     1  UNL1       -0.4727
     16 C         141.3707  142.7779  159.5478 C.ar    1  UNL1        0.0481
     17 C         141.5661  144.1538  160.1123 C.ar    1  UNL1        0.0176
     18 C         140.5191  144.7549  161.0025 C.ar    1  UNL1        0.0382
     19 C         139.2768  143.9801  161.3283 C.ar    1  UNL1        0.1388
     20 C         139.0814  142.6042  160.7639 C.ar    1  UNL1        0.0382
     21 C         140.1283  142.0031  159.8736 C.ar    1  UNL1        0.0176
     22 C         146.6398  141.2387  155.4105 C.3     1  UNL1        0.0948
     23 C         145.5585  140.3734  155.9868 C.2     1  UNL1        0.2262
     24 O         145.5241  138.9071  155.6728 O.2     1  UNL1       -0.2749
     25 N         144.5115  140.9746  156.8770 N.am    1  UNL1       -0.2760
     26 C         144.5459  142.4409  157.1911 C.3     1  UNL1        0.1148
     27 C         143.4990  143.0420  158.0813 C.3     1  UNL1        0.1123
     28 N         142.4176  142.1768  158.6576 N.pl3   1  UNL1       -0.3041
     29 C         142.3833  140.7104  158.3435 C.3     1  UNL1        0.1123
     30 C         143.4302  140.1093  157.4533 C.3     1  UNL1        0.1148
     31 C         142.2827  142.7489  165.3565 C.3     1  UNL1        0.1682
     32 N         143.0378  143.3615  164.2143 N.ar    1  UNL1       -0.3025
     33 C         143.7454  142.6138  163.1233 C.ar    1  UNL1        0.0982
     34 C         144.3628  143.6195  162.1973 C.ar    1  UNL1        0.1193
     35 N         144.0367  144.9886  162.7160 N.ar    1  UNL1       -0.2223
     36 C         143.2179  144.8292  163.9626 C.ar    1  UNL1        0.1788
@<TRIPOS>BOND
     1    22    23    1
     2    23    24    2
     3    23    25   am
     4    25    26    1
     5    26    27    1
     6    27    28    1
     7    28    16    1
     8    16    17   ar
     9    17    18   ar
    10    18    19   ar
    11    19    15    1
    12    15    14    1
    13     1    14    1
    14     1     2    1
    15     2     3    1
    16     3     4    1
    17     4    31    1
    18    31    32    1
    19    32    33   ar
    20    33    34   ar
    21    34    35   ar
    22    35    36   ar
    23     4     6    1
    24     6     7   ar
    25     7     8   ar
    26     8     9   ar
    27     9    10    1
    28     9    11   ar
    29    11    12   ar
    30    12    13    1
    31     4     5    1
    32    19    20   ar
    33    20    21   ar
    34    28    29    1
    35    29    30    1
    36    30    25    1
    37    21    16   ar
    38     5     1    1
    39    36    32   ar
    40    12     6   ar
@<TRIPOS>MOLECULE
*****
 36 40 0 0 0
SMALL
GASTEIGER

@<TRIPOS>ATOM
      1 C         141.6077  138.4709  164.2782 C.3     1  UNL1        0.1909
      2 C         142.5568  138.7502  165.4057 C.3     1  UNL1        0.1783
      3 O         141.8331  139.5769  166.4268 O.3     1  UNL1       -0.3267
      4 C         140.4367  139.8086  165.9304 C.3     1  UNL1        0.2296
      5 O         140.2973  139.1251  164.6025 O.3     1  UNL1       -0.3255
      6 C         140.2771  140.5740  167.2105 C.ar    1  UNL1        0.0409
      7 C         139.4410  140.0112  168.3215 C.ar    1  UNL1        0.0022
      8 C         139.2814  140.7766  169.6017 C.ar    1  UNL1        0.0113
      9 C         139.9578  142.1047  169.7708 C.ar    1  UNL1        0.0585
     10 CL        139.7982  142.8701  171.0509 Cl      1  UNL1       -0.0822
     11 C         140.7939  142.6674  168.6597 C.ar    1  UNL1        0.0226
     12 C         140.9535  141.9021  167.3797 C.ar    1  UNL1        0.0591
     13 CL        141.7896  142.4647  166.2687 Cl      1  UNL1       -0.0824
     14 C         141.9150  137.6770  163.0432 C.3     1  UNL1        0.2374
     15 O         140.8127  137.3083  162.0950 O.3     1  UNL1       -0.4727
     16 C         139.3874  140.2843  159.0353 C.ar    1  UNL1        0.0481
     17 C         140.8396  139.9151  159.1027 C.ar    1  UNL1        0.0176
     18 C         141.3147  138.9231  160.1226 C.ar    1  UNL1        0.0382
     19 C         140.3376  138.3003  161.0751 C.ar    1  UNL1        0.1388
     20 C         138.8853  138.6695  161.0077 C.ar    1  UNL1        0.0382
     21 C         138.4102  139.6615  159.9878 C.ar    1  UNL1        0.0176
     22 C         137.9811  145.6679  154.9993 C.3     1  UNL1        0.0948
     23 C         137.4870  144.2523  154.9557 C.2     1  UNL1        0.2262
     24 O         136.5177  143.8288  153.8922 O.2     1  UNL1       -0.2749
     25 N         137.9621  143.2603  155.9756 N.am    1  UNL1       -0.2760
     26 C         138.9313  143.6839  157.0391 C.3     1  UNL1        0.1148
     27 C         139.4065  142.6919  158.0590 C.3     1  UNL1        0.1123
     28 N         138.9123  141.2763  158.0154 N.pl3   1  UNL1       -0.3041
     29 C         137.9430  140.8527  156.9519 C.3     1  UNL1        0.1123
     30 C         137.4679  141.8448  155.9320 C.3     1  UNL1        0.1148
     31 C         139.0069  140.2003  165.7016 C.3     1  UNL1        0.1682
     32 N         138.6427  141.0559  164.5246 N.ar    1  UNL1       -0.3025
     33 C         139.3755  142.2814  164.0651 C.ar    1  UNL1        0.0982
     34 C         138.6675  142.8191  162.8570 C.ar    1  UNL1        0.1193
     35 N         137.4972  141.9259  162.5698 N.ar    1  UNL1       -0.2223
     36 C         137.4818  140.8362  163.6004 C.ar    1  UNL1        0.1788
@<TRIPOS>BOND
     1    22    23    1
     2    23    24    2
     3    23    25   am
     4    25    26    1
     5    26    27    1
     6    27    28    1
     7    28    16    1
     8    16    17   ar
     9    17    18   ar
    10    18    19   ar
    11    19    15    1
    12    15    14    1
    13     1    14    1
    14     1     2    1
    15     2     3    1
    16     3     4    1
    17     4    31    1
    18    31    32    1
    19    32    33   ar
    20    33    34   ar
    21    34    35   ar
    22    35    36   ar
    23     4     6    1
    24     6     7   ar
    25     7     8   ar
    26     8     9   ar
    27     9    10    1
    28     9    11   ar
    29    11    12   ar
    30    12    13    1
    31     4     5    1
    32    19    20   ar
    33    20    21   ar
    34    28    29    1
    35    29    30    1
    36    30    25    1
    37    21    16   ar
    38     5     1    1
    39    36    32   ar
    40    12     6   ar
@<TRIPOS>MOLECULE
*****
 36 40 0 0 0
SMALL
GASTEIGER

@<TRIPOS>ATOM
      1 C         139.3098  143.2037  163.7219 C.3     1  UNL1        0.1909
      2 C         138.6500  142.0669  164.4447 C.3     1  UNL1        0.1783
      3 O         139.6092  141.5559  165.4786 O.3     1  UNL1       -0.3267
      4 C         140.8618  142.3769  165.3948 C.3     1  UNL1        0.2296
      5 O         140.6768  143.3953  164.3091 O.3     1  UNL1       -0.3255
      6 C         141.3290  141.4915  166.5118 C.ar    1  UNL1        0.0409
      7 C         142.1006  140.2420  166.2057 C.ar    1  UNL1        0.0022
      8 C         142.5679  139.3565  167.3227 C.ar    1  UNL1        0.0113
      9 C         142.2636  139.7205  168.7457 C.ar    1  UNL1        0.0585
     10 CL        142.7309  138.8350  169.8627 Cl      1  UNL1       -0.0822
     11 C         141.4920  140.9699  169.0517 C.ar    1  UNL1        0.0226
     12 C         141.0248  141.8553  167.9348 C.ar    1  UNL1        0.0591
     13 CL        140.2532  143.1048  168.2408 Cl      1  UNL1       -0.0824
     14 C         138.7083  144.0077  162.6076 C.3     1  UNL1        0.2374
     15 O         137.9274  143.3229  161.5254 O.3     1  UNL1       -0.4727
     16 C         139.8299  140.0327  159.1160 C.ar    1  UNL1        0.0481
     17 C         138.8402  139.6980  160.1923 C.ar    1  UNL1        0.0176
     18 C         138.2060  140.7947  160.9954 C.ar    1  UNL1        0.0382
     19 C         138.5616  142.2261  160.7223 C.ar    1  UNL1        0.1388
     20 C         139.5513  142.5608  159.6460 C.ar    1  UNL1        0.0382
     21 C         140.1854  141.4641  158.8428 C.ar    1  UNL1        0.0176
     22 C         143.7671  135.2053  156.2100 C.3     1  UNL1        0.0948
     23 C         142.3664  135.6458  155.9034 C.2     1  UNL1        0.2262
     24 O         141.5999  134.9895  154.7936 O.2     1  UNL1       -0.2749
     25 N         141.7323  136.7425  156.7065 N.am    1  UNL1       -0.2760
     26 C         142.4988  137.3988  157.8163 C.3     1  UNL1        0.1148
     27 C         141.8647  138.4955  158.6195 C.3     1  UNL1        0.1123
     28 N         140.4640  138.9360  158.3128 N.pl3   1  UNL1       -0.3041
     29 C         139.6975  138.2797  157.2030 C.3     1  UNL1        0.1123
     30 C         140.3316  137.1830  156.3999 C.3     1  UNL1        0.1148
     31 C         142.2121  143.0128  165.5445 C.3     1  UNL1        0.1682
     32 N         143.0215  143.3499  164.3275 N.ar    1  UNL1       -0.3025
     33 C         143.7406  142.3706  163.4479 C.ar    1  UNL1        0.0982
     34 C         144.4174  143.1409  162.3532 C.ar    1  UNL1        0.1193
     35 N         144.1166  144.5963  162.5562 N.ar    1  UNL1       -0.2223
     36 C         143.2538  144.7255  163.7764 C.ar    1  UNL1        0.1788
@<TRIPOS>BOND
     1    22    23    1
     2    23    24    2
     3    23    25   am
     4    25    26    1
     5    26    27    1
     6    27    28    1
     7    28    16    1
     8    16    17   ar
     9    17    18   ar
    10    18    19   ar
    11    19    15    1
    12    15    14    1
    13     1    14    1
    14     1     2    1
    15     2     3    1
    16     3     4    1
    17     4    31    1
    18    31    32    1
    19    32    33   ar
    20    33    34   ar
    21    34    35   ar
    22    35    36   ar
    23     4     6    1
    24     6     7   ar
    25     7     8   ar
    26     8     9   ar
    27     9    10    1
    28     9    11   ar
    29    11    12   ar
    30    12    13    1
    31     4     5    1
    32    19    20   ar
    33    20    21   ar
    34    28    29    1
    35    29    30    1
    36    30    25    1
    37    21    16   ar
    38     5     1    1
    39    36    32   ar
    40    12     6   ar
