@<TRIPOS>MOLECULE
*****
 29 32 0 0 0
SMALL
GASTEIGER

@<TRIPOS>ATOM
      1 C         140.9690  138.5314  164.5012 C.ar    1  UNL1        0.0386
      2 C         141.0778  137.0775  164.1487 C.ar    1  UNL1        0.1220
      3 N         141.0300  136.9582  162.6542 N.ar    1  UNL1       -0.1635
      4 N         140.8917  138.3383  162.0831 N.ar    1  UNL1       -0.2281
      5 C         140.7953  138.8352  160.6711 C.ar    1  UNL1        0.1004
      6 C         140.6611  140.3045  160.4007 C.ar    1  UNL1        0.0207
      7 C         140.6233  141.2768  161.5422 C.ar    1  UNL1        0.0031
      8 C         140.7198  140.7799  162.9542 C.ar    1  UNL1        0.0192
      9 C         140.8540  139.3106  163.2246 C.ar    1  UNL1        0.0844
     10 C         140.9848  140.2534  168.6587 C.ar    1  UNL1        0.1057
     11 C         139.6867  140.0565  167.9334 C.ar    1  UNL1        0.0183
     12 C         139.6815  139.4825  166.5476 C.ar    1  UNL1        0.0014
     13 C         140.9742  139.1054  165.8870 C.ar    1  UNL1        0.0031
     14 C         142.2724  139.3024  166.6124 C.ar    1  UNL1        0.0014
     15 C         142.2777  139.8764  167.9982 C.ar    1  UNL1        0.0183
     16 C         140.9953  141.4013  171.4304 C.3     1  UNL1        0.1816
     17 S         140.9901  140.8274  170.0446 S.O2    1  UNL1        0.0104
     18 O         139.9889  139.7968  170.4751 O.2     1  UNL1       -0.1686
     19 O         141.9913  141.8580  169.6139 O.2     1  UNL1       -0.1686
     20 C         140.4892  142.7462  161.2717 C.ar    1  UNL1        0.0014
     21 C         139.8335  143.6383  162.2837 C.ar    1  UNL1        0.0001
     22 C         139.6993  145.1076  162.0132 C.ar    1  UNL1        0.0013
     23 C         140.2208  145.6848  160.7307 C.ar    1  UNL1        0.0183
     24 C         140.8765  144.7926  159.7186 C.ar    1  UNL1        0.1057
     25 C         141.0106  143.3233  159.9892 C.ar    1  UNL1        0.0183
     26 S         141.3980  145.3697  158.4361 S.O2    1  UNL1        0.0104
     27 C         141.9195  145.9469  157.1535 C.3     1  UNL1        0.1816
     28 O         142.7068  144.6699  158.6533 O.2     1  UNL1       -0.1686
     29 O         140.0892  146.0696  158.2188 O.2     1  UNL1       -0.1686
@<TRIPOS>BOND
     1    16    17    1
     2    17    18    2
     3    17    19    2
     4    17    10    1
     5    10    11   ar
     6    11    12   ar
     7    12    13   ar
     8    13     1    1
     9     1     2   ar
    10     2     3   ar
    11     3     4   ar
    12     4     5   ar
    13     5     6   ar
    14     6     7   ar
    15     7    20    1
    16    20    21   ar
    17    21    22   ar
    18    22    23   ar
    19    23    24   ar
    20    24    26    1
    21    26    27    1
    22    26    28    2
    23    26    29    2
    24    24    25   ar
    25     7     8   ar
    26     8     9   ar
    27    13    14   ar
    28    14    15   ar
    29    15    10   ar
    30     9     1   ar
    31     9     4   ar
    32    25    20   ar
@<TRIPOS>MOLECULE
*****
 29 32 0 0 0
SMALL
GASTEIGER

@<TRIPOS>ATOM
      1 C         140.8521  143.3305  160.8053 C.ar    1  UNL1        0.0386
      2 C         140.9064  144.7590  160.3509 C.ar    1  UNL1        0.1220
      3 N         140.3938  145.6202  161.4669 N.ar    1  UNL1       -0.1635
      4 N         140.0228  144.7240  162.6111 N.ar    1  UNL1       -0.2281
      5 C         139.4636  145.0137  163.9725 C.ar    1  UNL1        0.1004
      6 C         139.1877  143.8883  164.9250 C.ar    1  UNL1        0.0207
      7 C         139.4710  142.4732  164.5161 C.ar    1  UNL1        0.0031
      8 C         140.0301  142.1835  163.1547 C.ar    1  UNL1        0.0192
      9 C         140.3060  143.3089  162.2022 C.ar    1  UNL1        0.0844
     10 C         142.1073  139.7401  158.4003 C.ar    1  UNL1        0.1057
     11 C         143.1430  140.5932  159.0707 C.ar    1  UNL1        0.0183
     12 C         142.7246  141.7900  159.8724 C.ar    1  UNL1        0.0014
     13 C         141.2705  142.1337  160.0037 C.ar    1  UNL1        0.0031
     14 C         140.2347  141.2806  159.3332 C.ar    1  UNL1        0.0014
     15 C         140.6531  140.0838  158.5316 C.ar    1  UNL1        0.0183
     16 C         142.9439  137.3466  156.7970 C.3     1  UNL1        0.1816
     17 S         142.5257  138.5433  157.5986 S.O2    1  UNL1        0.0104
     18 O         141.1522  137.9603  157.7524 O.2     1  UNL1       -0.1686
     19 O         143.8991  139.1265  157.4449 O.2     1  UNL1       -0.1686
     20 C         139.1950  141.3477  165.4686 C.ar    1  UNL1        0.0014
     21 C         138.2621  140.2419  165.0729 C.ar    1  UNL1        0.0001
     22 C         137.9862  139.1164  166.0255 C.ar    1  UNL1        0.0013
     23 C         138.6432  139.0969  167.3738 C.ar    1  UNL1        0.0183
     24 C         139.5762  140.2029  167.7695 C.ar    1  UNL1        0.1057
     25 C         139.8521  141.3282  166.8170 C.ar    1  UNL1        0.0183
     26 S         140.2332  140.1834  169.1178 S.O2    1  UNL1        0.0104
     27 C         140.8903  140.1639  170.4661 C.3     1  UNL1        0.1816
     28 O         141.5595  140.4632  168.4755 O.2     1  UNL1       -0.1686
     29 O         138.9069  139.9035  169.7601 O.2     1  UNL1       -0.1686
@<TRIPOS>BOND
     1    16    17    1
     2    17    18    2
     3    17    19    2
     4    17    10    1
     5    10    11   ar
     6    11    12   ar
     7    12    13   ar
     8    13     1    1
     9     1     2   ar
    10     2     3   ar
    11     3     4   ar
    12     4     5   ar
    13     5     6   ar
    14     6     7   ar
    15     7    20    1
    16    20    21   ar
    17    21    22   ar
    18    22    23   ar
    19    23    24   ar
    20    24    26    1
    21    26    27    1
    22    26    28    2
    23    26    29    2
    24    24    25   ar
    25     7     8   ar
    26     8     9   ar
    27    13    14   ar
    28    14    15   ar
    29    15    10   ar
    30     9     1   ar
    31     9     4   ar
    32    25    20   ar
@<TRIPOS>MOLECULE
*****
 29 32 0 0 0
SMALL
GASTEIGER

@<TRIPOS>ATOM
      1 C         142.3024  138.6555  158.4645 C.ar    1  UNL1        0.0386
      2 C         142.5575  139.9847  157.8180 C.ar    1  UNL1        0.1220
      3 N         143.2604  139.7395  156.5158 N.ar    1  UNL1       -0.1635
      4 N         143.4397  138.2587  156.3575 N.ar    1  UNL1       -0.2281
      5 C         144.0656  137.4338  155.2722 C.ar    1  UNL1        0.1004
      6 C         144.0995  135.9390  155.3914 C.ar    1  UNL1        0.0207
      7 C         143.5074  135.2690  156.5958 C.ar    1  UNL1        0.0031
      8 C         142.8815  136.0939  157.6811 C.ar    1  UNL1        0.0192
      9 C         142.8477  137.5887  157.5619 C.ar    1  UNL1        0.0844
     10 C         140.2600  137.9855  162.4180 C.ar    1  UNL1        0.1057
     11 C         141.7415  137.7853  162.2958 C.ar    1  UNL1        0.0183
     12 C         142.4223  138.0087  160.9779 C.ar    1  UNL1        0.0014
     13 C         141.6216  138.4321  159.7824 C.ar    1  UNL1        0.0031
     14 C         140.1400  138.6323  159.9046 C.ar    1  UNL1        0.0014
     15 C         139.4592  138.4089  161.2224 C.ar    1  UNL1        0.0183
     16 C         138.8986  137.5388  165.0537 C.3     1  UNL1        0.1816
     17 S         139.5792  137.7621  163.7358 S.O2    1  UNL1        0.0104
     18 O         140.8995  137.8803  164.4378 O.2     1  UNL1       -0.1686
     19 O         138.2589  137.6439  163.0338 O.2     1  UNL1       -0.1686
     20 C         143.5413  133.7741  156.7150 C.ar    1  UNL1        0.0014
     21 C         144.5685  133.1143  157.5864 C.ar    1  UNL1        0.0001
     22 C         144.6024  131.6193  157.7056 C.ar    1  UNL1        0.0013
     23 C         143.6091  130.7843  156.9532 C.ar    1  UNL1        0.0183
     24 C         142.5819  131.4442  156.0817 C.ar    1  UNL1        0.1057
     25 C         142.5480  132.9391  155.9626 C.ar    1  UNL1        0.0183
     26 S         141.5885  130.6092  155.3293 S.O2    1  UNL1        0.0104
     27 C         140.5952  129.7742  154.5769 C.3     1  UNL1        0.1816
     28 O         140.8552  131.8516  154.9186 O.2     1  UNL1       -0.1686
     29 O         142.3218  129.3668  155.7401 O.2     1  UNL1       -0.1686
@<TRIPOS>BOND
     1    16    17    1
     2    17    18    2
     3    17    19    2
     4    17    10    1
     5    10    11   ar
     6    11    12   ar
     7    12    13   ar
     8    13     1    1
     9     1     2   ar
    10     2     3   ar
    11     3     4   ar
    12     4     5   ar
    13     5     6   ar
    14     6     7   ar
    15     7    20    1
    16    20    21   ar
    17    21    22   ar
    18    22    23   ar
    19    23    24   ar
    20    24    26    1
    21    26    27    1
    22    26    28    2
    23    26    29    2
    24    24    25   ar
    25     7     8   ar
    26     8     9   ar
    27    13    14   ar
    28    14    15   ar
    29    15    10   ar
    30     9     1   ar
    31     9     4   ar
    32    25    20   ar
@<TRIPOS>MOLECULE
*****
 29 32 0 0 0
SMALL
GASTEIGER

@<TRIPOS>ATOM
      1 C         140.8695  144.2245  161.1313 C.ar    1  UNL1        0.0386
      2 C         140.0111  145.4095  160.8013 C.ar    1  UNL1        0.1220
      3 N         139.2754  145.8098  162.0457 N.ar    1  UNL1       -0.1635
      4 N         139.6792  144.8723  163.1448 N.ar    1  UNL1       -0.2281
      5 C         139.2771  144.7842  164.5872 C.ar    1  UNL1        0.1004
      6 C         139.8602  143.7163  165.4644 C.ar    1  UNL1        0.0207
      7 C         140.8454  142.7365  164.8993 C.ar    1  UNL1        0.0031
      8 C         141.2475  142.8246  163.4569 C.ar    1  UNL1        0.0192
      9 C         140.6644  143.8925  162.5797 C.ar    1  UNL1        0.0844
     10 C         143.5837  142.0478  158.2774 C.ar    1  UNL1        0.1057
     11 C         142.1503  142.2929  157.9098 C.ar    1  UNL1        0.0183
     12 C         141.2456  143.0185  158.8611 C.ar    1  UNL1        0.0014
     13 C         141.7742  143.4990  160.1800 C.ar    1  UNL1        0.0031
     14 C         143.2077  143.2538  160.5477 C.ar    1  UNL1        0.0014
     15 C         144.1125  142.5282  159.5963 C.ar    1  UNL1        0.0183
     16 C         145.3931  140.5965  156.3748 C.3     1  UNL1        0.1816
     17 S         144.4885  141.3222  157.3261 S.O2    1  UNL1        0.0104
     18 O         144.4028  140.0933  158.1820 O.2     1  UNL1       -0.1686
     19 O         144.5740  142.5510  156.4702 O.2     1  UNL1       -0.1686
     20 C         141.4285  141.6686  165.7766 C.ar    1  UNL1        0.0014
     21 C         142.0945  140.4735  165.1616 C.ar    1  UNL1        0.0001
     22 C         142.6775  139.4056  166.0389 C.ar    1  UNL1        0.0013
     23 C         142.5946  139.5328  167.5312 C.ar    1  UNL1        0.0183
     24 C         141.9286  140.7279  168.1462 C.ar    1  UNL1        0.1057
     25 C         141.3455  141.7957  167.2689 C.ar    1  UNL1        0.0183
     26 S         141.8456  140.8551  169.6384 S.O2    1  UNL1        0.0104
     27 C         141.7626  140.9823  171.1307 C.3     1  UNL1        0.1816
     28 O         143.2033  140.2306  169.7671 O.2     1  UNL1       -0.1686
     29 O         140.4878  141.4795  169.5097 O.2     1  UNL1       -0.1686
@<TRIPOS>BOND
     1    16    17    1
     2    17    18    2
     3    17    19    2
     4    17    10    1
     5    10    11   ar
     6    11    12   ar
     7    12    13   ar
     8    13     1    1
     9     1     2   ar
    10     2     3   ar
    11     3     4   ar
    12     4     5   ar
    13     5     6   ar
    14     6     7   ar
    15     7    20    1
    16    20    21   ar
    17    21    22   ar
    18    22    23   ar
    19    23    24   ar
    20    24    26    1
    21    26    27    1
    22    26    28    2
    23    26    29    2
    24    24    25   ar
    25     7     8   ar
    26     8     9   ar
    27    13    14   ar
    28    14    15   ar
    29    15    10   ar
    30     9     1   ar
    31     9     4   ar
    32    25    20   ar
@<TRIPOS>MOLECULE
*****
 29 32 0 0 0
SMALL
GASTEIGER

@<TRIPOS>ATOM
      1 C         142.9618  140.3281  165.4571 C.ar    1  UNL1        0.0386
      2 C         143.8617  139.1281  165.4530 C.ar    1  UNL1        0.1220
      3 N         144.3894  138.9493  164.0603 N.ar    1  UNL1       -0.1635
      4 N         143.8156  140.0388  163.2037 N.ar    1  UNL1       -0.2281
      5 C         143.9825  140.3650  161.7492 C.ar    1  UNL1        0.1004
      6 C         143.2671  141.5433  161.1579 C.ar    1  UNL1        0.0207
      7 C         142.3848  142.3955  162.0212 C.ar    1  UNL1        0.0031
      8 C         142.2178  142.0693  163.4757 C.ar    1  UNL1        0.0192
      9 C         142.9332  140.8910  164.0670 C.ar    1  UNL1        0.0844
     10 C         140.7377  141.9543  169.0151 C.ar    1  UNL1        0.1057
     11 C         142.0982  142.4859  168.6740 C.ar    1  UNL1        0.0183
     12 C         142.8395  141.9439  167.4879 C.ar    1  UNL1        0.0014
     13 C         142.2204  140.8702  166.6431 C.ar    1  UNL1        0.0031
     14 C         140.8599  140.3385  166.9843 C.ar    1  UNL1        0.0014
     15 C         140.1185  140.8805  168.1703 C.ar    1  UNL1        0.0183
     16 C         139.2551  143.0385  171.3871 C.3     1  UNL1        0.1816
     17 S         139.9964  142.4963  170.2012 S.O2    1  UNL1        0.0104
     18 O         140.8724  143.7139  170.1921 O.2     1  UNL1       -0.1686
     19 O         139.1204  141.2787  170.2101 O.2     1  UNL1       -0.1686
     20 C         141.6694  143.5739  161.4299 C.ar    1  UNL1        0.0014
     21 C         140.7146  144.3701  162.2692 C.ar    1  UNL1        0.0001
     22 C         139.9992  145.5485  161.6778 C.ar    1  UNL1        0.0013
     23 C         140.2386  145.9307  160.2472 C.ar    1  UNL1        0.0183
     24 C         141.1934  145.1344  159.4079 C.ar    1  UNL1        0.1057
     25 C         141.9088  143.9561  159.9993 C.ar    1  UNL1        0.0183
     26 S         141.4328  145.5165  157.9773 S.O2    1  UNL1        0.0104
     27 C         141.6722  145.8987  156.5467 C.3     1  UNL1        0.1816
     28 O         142.7806  144.8600  158.0275 O.2     1  UNL1       -0.1686
     29 O         140.0851  146.1731  157.9272 O.2     1  UNL1       -0.1686
@<TRIPOS>BOND
     1    16    17    1
     2    17    18    2
     3    17    19    2
     4    17    10    1
     5    10    11   ar
     6    11    12   ar
     7    12    13   ar
     8    13     1    1
     9     1     2   ar
    10     2     3   ar
    11     3     4   ar
    12     4     5   ar
    13     5     6   ar
    14     6     7   ar
    15     7    20    1
    16    20    21   ar
    17    21    22   ar
    18    22    23   ar
    19    23    24   ar
    20    24    26    1
    21    26    27    1
    22    26    28    2
    23    26    29    2
    24    24    25   ar
    25     7     8   ar
    26     8     9   ar
    27    13    14   ar
    28    14    15   ar
    29    15    10   ar
    30     9     1   ar
    31     9     4   ar
    32    25    20   ar
@<TRIPOS>MOLECULE
*****
 29 32 0 0 0
SMALL
GASTEIGER

@<TRIPOS>ATOM
      1 C         140.3388  143.2801  160.4375 C.ar    1  UNL1        0.0386
      2 C         140.1176  144.5855  159.7325 C.ar    1  UNL1        0.1220
      3 N         139.6890  145.5970  160.7539 N.ar    1  UNL1       -0.1635
      4 N         139.6454  144.9168  162.0901 N.ar    1  UNL1       -0.2281
      5 C         139.2919  145.4163  163.4596 C.ar    1  UNL1        0.1004
      6 C         139.3400  144.4838  164.6335 C.ar    1  UNL1        0.0207
      7 C         139.7416  143.0518  164.4379 C.ar    1  UNL1        0.0031
      8 C         140.0951  142.5524  163.0685 C.ar    1  UNL1        0.0192
      9 C         140.0470  143.4848  161.8945 C.ar    1  UNL1        0.0844
     10 C         141.6481  139.4262  158.5182 C.ar    1  UNL1        0.1057
     11 C         142.6429  140.2728  159.2555 C.ar    1  UNL1        0.0183
     12 C         142.2065  141.5574  159.8953 C.ar    1  UNL1        0.0014
     13 C         140.7753  141.9955  159.7977 C.ar    1  UNL1        0.0031
     14 C         139.7804  141.1489  159.0604 C.ar    1  UNL1        0.0014
     15 C         140.2168  139.8643  158.4206 C.ar    1  UNL1        0.0183
     16 C         142.5208  136.8570  157.2387 C.3     1  UNL1        0.1816
     17 S         142.0845  138.1416  157.8785 S.O2    1  UNL1        0.0104
     18 O         140.6494  137.7461  157.6938 O.2     1  UNL1       -0.1686
     19 O         143.5196  138.5372  158.0632 O.2     1  UNL1       -0.1686
     20 C         139.7897  142.1193  165.6119 C.ar    1  UNL1        0.0014
     21 C         140.6199  142.4665  166.8120 C.ar    1  UNL1        0.0001
     22 C         140.6680  141.5341  167.9860 C.ar    1  UNL1        0.0013
     23 C         139.8859  140.2544  167.9599 C.ar    1  UNL1        0.0183
     24 C         139.0556  139.9072  166.7597 C.ar    1  UNL1        0.1057
     25 C         139.0076  140.8397  165.5858 C.ar    1  UNL1        0.0183
     26 S         138.2735  138.6275  166.7336 S.O2    1  UNL1        0.0104
     27 C         137.4913  137.3479  166.7075 C.3     1  UNL1        0.1816
     28 O         138.6727  138.4127  165.3038 O.2     1  UNL1       -0.1686
     29 O         137.8742  138.8423  168.1635 O.2     1  UNL1       -0.1686
@<TRIPOS>BOND
     1    16    17    1
     2    17    18    2
     3    17    19    2
     4    17    10    1
     5    10    11   ar
     6    11    12   ar
     7    12    13   ar
     8    13     1    1
     9     1     2   ar
    10     2     3   ar
    11     3     4   ar
    12     4     5   ar
    13     5     6   ar
    14     6     7   ar
    15     7    20    1
    16    20    21   ar
    17    21    22   ar
    18    22    23   ar
    19    23    24   ar
    20    24    26    1
    21    26    27    1
    22    26    28    2
    23    26    29    2
    24    24    25   ar
    25     7     8   ar
    26     8     9   ar
    27    13    14   ar
    28    14    15   ar
    29    15    10   ar
    30     9     1   ar
    31     9     4   ar
    32    25    20   ar
@<TRIPOS>MOLECULE
*****
 29 32 0 0 0
SMALL
GASTEIGER

@<TRIPOS>ATOM
      1 C         139.2505  140.1195  161.3141 C.ar    1  UNL1        0.0386
      2 C         138.4132  139.0031  160.7639 C.ar    1  UNL1        0.1220
      3 N         138.0876  138.0688  161.8913 N.ar    1  UNL1       -0.1635
      4 N         138.7237  138.6077  163.1383 N.ar    1  UNL1       -0.2281
      5 C         138.7413  138.1080  164.5525 C.ar    1  UNL1        0.1004
      6 C         139.4777  138.8758  165.6100 C.ar    1  UNL1        0.0207
      7 C         140.1963  140.1431  165.2533 C.ar    1  UNL1        0.0031
      8 C         140.1787  140.6428  163.8391 C.ar    1  UNL1        0.0192
      9 C         139.4424  139.8750  162.7816 C.ar    1  UNL1        0.0844
     10 C         140.8974  143.5921  158.9736 C.ar    1  UNL1        0.1057
     11 C         141.3314  142.1940  158.6466 C.ar    1  UNL1        0.0183
     12 C         140.7824  141.0365  159.4268 C.ar    1  UNL1        0.0014
     13 C         139.7995  141.2770  160.5339 C.ar    1  UNL1        0.0031
     14 C         139.3654  142.6752  160.8609 C.ar    1  UNL1        0.0014
     15 C         139.9144  143.8327  160.0807 C.ar    1  UNL1        0.0183
     16 C         141.9955  145.9071  157.4132 C.3     1  UNL1        0.1816
     17 S         141.4464  144.7497  158.1934 S.O2    1  UNL1        0.0104
     18 O         142.8403  144.3408  158.5677 O.2     1  UNL1       -0.1686
     19 O         140.0526  145.1585  157.8190 O.2     1  UNL1       -0.1686
     20 C         140.9327  140.9109  166.3109 C.ar    1  UNL1        0.0014
     21 C         142.3815  141.2493  166.1203 C.ar    1  UNL1        0.0001
     22 C         143.1179  142.0170  167.1779 C.ar    1  UNL1        0.0013
     23 C         142.4053  142.4464  168.4261 C.ar    1  UNL1        0.0183
     24 C         140.9564  142.1080  168.6166 C.ar    1  UNL1        0.1057
     25 C         140.2201  141.3403  167.5591 C.ar    1  UNL1        0.0183
     26 S         140.2438  142.5373  169.8648 S.O2    1  UNL1        0.0104
     27 C         139.5313  142.9667  171.1130 C.3     1  UNL1        0.1816
     28 O         140.1185  143.9273  169.3151 O.2     1  UNL1       -0.1686
     29 O         140.3691  141.1473  170.4145 O.2     1  UNL1       -0.1686
@<TRIPOS>BOND
     1    16    17    1
     2    17    18    2
     3    17    19    2
     4    17    10    1
     5    10    11   ar
     6    11    12   ar
     7    12    13   ar
     8    13     1    1
     9     1     2   ar
    10     2     3   ar
    11     3     4   ar
    12     4     5   ar
    13     5     6   ar
    14     6     7   ar
    15     7    20    1
    16    20    21   ar
    17    21    22   ar
    18    22    23   ar
    19    23    24   ar
    20    24    26    1
    21    26    27    1
    22    26    28    2
    23    26    29    2
    24    24    25   ar
    25     7     8   ar
    26     8     9   ar
    27    13    14   ar
    28    14    15   ar
    29    15    10   ar
    30     9     1   ar
    31     9     4   ar
    32    25    20   ar
@<TRIPOS>MOLECULE
*****
 29 32 0 0 0
SMALL
GASTEIGER

@<TRIPOS>ATOM
      1 C         142.5049  139.5819  159.1839 C.ar    1  UNL1        0.0386
      2 C         143.0484  140.9422  158.8614 C.ar    1  UNL1        0.1220
      3 N         143.7082  140.8707  157.5162 N.ar    1  UNL1       -0.1635
      4 N         143.5725  139.4662  157.0074 N.ar    1  UNL1       -0.2281
      5 C         144.0301  138.8097  155.7387 C.ar    1  UNL1        0.1004
      6 C         143.7439  137.3566  155.5007 C.ar    1  UNL1        0.0207
      7 C         143.0002  136.5601  156.5314 C.ar    1  UNL1        0.0031
      8 C         142.5426  137.2166  157.8001 C.ar    1  UNL1        0.0192
      9 C         142.8288  138.6696  158.0381 C.ar    1  UNL1        0.0844
     10 C         140.2910  138.4382  162.9311 C.ar    1  UNL1        0.1057
     11 C         141.6212  137.8156  162.6262 C.ar    1  UNL1        0.0183
     12 C         142.3591  138.1968  161.3772 C.ar    1  UNL1        0.0014
     13 C         141.7670  139.2006  160.4330 C.ar    1  UNL1        0.0031
     14 C         140.4367  139.8233  160.7379 C.ar    1  UNL1        0.0014
     15 C         139.6988  139.4420  161.9869 C.ar    1  UNL1        0.0183
     16 C         138.8152  137.6758  165.4292 C.3     1  UNL1        0.1816
     17 S         139.5531  138.0570  164.1802 S.O2    1  UNL1        0.0104
     18 O         138.4501  139.0069  163.8184 O.2     1  UNL1       -0.1686
     19 O         140.6562  137.1070  164.5419 O.2     1  UNL1       -0.1686
     20 C         142.7140  135.1069  156.2934 C.ar    1  UNL1        0.0014
     21 C         141.6111  134.7027  155.3606 C.ar    1  UNL1        0.0001
     22 C         141.3250  133.2496  155.1225 C.ar    1  UNL1        0.0013
     23 C         142.1418  132.2007  155.8173 C.ar    1  UNL1        0.0183
     24 C         143.2447  132.6050  156.7502 C.ar    1  UNL1        0.1057
     25 C         143.5308  134.0581  156.9882 C.ar    1  UNL1        0.0183
     26 S         144.0615  131.5562  157.4450 S.O2    1  UNL1        0.0104
     27 C         144.8783  130.5073  158.1398 C.3     1  UNL1        0.1816
     28 O         144.9833  132.6188  157.9655 O.2     1  UNL1       -0.1686
     29 O         143.1397  130.4935  156.9245 O.2     1  UNL1       -0.1686
@<TRIPOS>BOND
     1    16    17    1
     2    17    18    2
     3    17    19    2
     4    17    10    1
     5    10    11   ar
     6    11    12   ar
     7    12    13   ar
     8    13     1    1
     9     1     2   ar
    10     2     3   ar
    11     3     4   ar
    12     4     5   ar
    13     5     6   ar
    14     6     7   ar
    15     7    20    1
    16    20    21   ar
    17    21    22   ar
    18    22    23   ar
    19    23    24   ar
    20    24    26    1
    21    26    27    1
    22    26    28    2
    23    26    29    2
    24    24    25   ar
    25     7     8   ar
    26     8     9   ar
    27    13    14   ar
    28    14    15   ar
    29    15    10   ar
    30     9     1   ar
    31     9     4   ar
    32    25    20   ar
@<TRIPOS>MOLECULE
*****
 29 32 0 0 0
SMALL
GASTEIGER

@<TRIPOS>ATOM
      1 C         135.0079  140.8594  154.8632 C.ar    1  UNL1        0.0386
      2 C         135.2213  141.1180  153.4011 C.ar    1  UNL1        0.1220
      3 N         136.6622  141.4835  153.2006 N.ar    1  UNL1       -0.1635
      4 N         137.3393  141.4507  154.5387 N.ar    1  UNL1       -0.2281
      5 C         138.7548  141.7223  154.9543 C.ar    1  UNL1        0.1004
      6 C         139.1477  141.6081  156.3974 C.ar    1  UNL1        0.0207
      7 C         138.1252  141.2224  157.4249 C.ar    1  UNL1        0.0031
      8 C         136.7098  140.9509  157.0093 C.ar    1  UNL1        0.0192
      9 C         136.3168  141.0650  155.5663 C.ar    1  UNL1        0.0844
     10 C         131.1226  139.6748  156.8000 C.ar    1  UNL1        0.1057
     11 C         132.3165  138.7724  156.9006 C.ar    1  UNL1        0.0183
     12 C         133.6116  139.1673  156.2549 C.ar    1  UNL1        0.0014
     13 C         133.7128  140.4645  155.5088 C.ar    1  UNL1        0.0031
     14 C         132.5188  141.3670  155.4082 C.ar    1  UNL1        0.0014
     15 C         131.2237  140.9721  156.0539 C.ar    1  UNL1        0.0183
     16 C         128.5324  138.8851  158.0912 C.3     1  UNL1        0.1816
     17 S         129.8275  139.2799  157.4457 S.O2    1  UNL1        0.0104
     18 O         129.0868  140.2039  156.5250 O.2     1  UNL1       -0.1686
     19 O         130.5682  138.3559  158.3664 O.2     1  UNL1       -0.1686
     20 C         138.5183  141.1083  158.8680 C.ar    1  UNL1        0.0014
     21 C         139.2827  139.9090  159.3446 C.ar    1  UNL1        0.0001
     22 C         139.6757  139.7948  160.7877 C.ar    1  UNL1        0.0013
     23 C         139.3043  140.8801  161.7542 C.ar    1  UNL1        0.0183
     24 C         138.5398  142.0795  161.2776 C.ar    1  UNL1        0.1057
     25 C         138.1468  142.1936  159.8346 C.ar    1  UNL1        0.0183
     26 S         138.1683  143.1648  162.2442 S.O2    1  UNL1        0.0104
     27 C         137.7968  144.2500  163.2107 C.3     1  UNL1        0.1816
     28 O         138.9163  144.1629  161.4110 O.2     1  UNL1       -0.1686
     29 O         137.4202  142.1667  163.0774 O.2     1  UNL1       -0.1686
@<TRIPOS>BOND
     1    16    17    1
     2    17    18    2
     3    17    19    2
     4    17    10    1
     5    10    11   ar
     6    11    12   ar
     7    12    13   ar
     8    13     1    1
     9     1     2   ar
    10     2     3   ar
    11     3     4   ar
    12     4     5   ar
    13     5     6   ar
    14     6     7   ar
    15     7    20    1
    16    20    21   ar
    17    21    22   ar
    18    22    23   ar
    19    23    24   ar
    20    24    26    1
    21    26    27    1
    22    26    28    2
    23    26    29    2
    24    24    25   ar
    25     7     8   ar
    26     8     9   ar
    27    13    14   ar
    28    14    15   ar
    29    15    10   ar
    30     9     1   ar
    31     9     4   ar
    32    25    20   ar
