@<TRIPOS>MOLECULE
*****
 36 40 0 0 0
SMALL
GASTEIGER

@<TRIPOS>ATOM
      1 C         143.1076  144.0688  162.4738 C.3     1  UNL1        0.2380
      2 O         142.5262  144.9562  163.5342 O.3     1  UNL1       -0.3289
      3 C         141.0719  145.3210  163.4923 C.3     1  UNL1        0.1629
      4 C         140.1989  144.7984  162.3901 C.3     1  UNL1        0.1144
      5 C         140.7804  143.9110  161.3297 C.3     1  UNL1        0.1629
      6 O         142.2348  143.5462  161.3716 O.3     1  UNL1       -0.3289
      7 N         138.7446  145.1632  162.3482 N.3     1  UNL1       -0.2908
      8 H         138.4524  145.0974  161.3732 H       1  UNL1        0.1237
      9 C         137.7509  144.3780  163.1520 C.3     1  UNL1        0.0958
     10 C         137.9887  142.9220  163.4232 C.ar    1  UNL1       -0.0032
     11 C         138.4461  142.4769  164.7806 C.ar    1  UNL1        0.0004
     12 C         138.6839  141.0209  165.0518 C.ar    1  UNL1        0.0398
     13 C         138.4643  140.0100  163.9656 C.ar    1  UNL1        0.1724
     14 C         138.0068  140.4551  162.6082 C.ar    1  UNL1        0.1721
     15 C         137.7690  141.9111  162.3370 C.ar    1  UNL1        0.0371
     16 O         137.7872  139.4442  161.5220 O.3     1  UNL1       -0.4684
     17 C         138.0250  137.9883  161.7932 C.3     1  UNL1        0.2526
     18 C         138.4824  137.5431  163.1507 C.3     1  UNL1        0.2526
     19 O         138.7021  138.5540  164.2369 O.3     1  UNL1       -0.4684
     20 C         144.5620  143.7039  162.5157 C.3     1  UNL1        0.0951
     21 C         145.0229  142.5548  163.3626 C.3     1  UNL1        0.1400
     22 O         146.2923  141.8327  163.0202 O.3     1  UNL1       -0.3798
     23 H         146.6882  142.2318  162.2297 H       1  UNL1        0.2108
     24 C         142.8053  138.6400  163.2876 C.ar    1  UNL1        0.1388
     25 C         141.9969  138.2131  164.4768 C.ar    1  UNL1        0.0384
     26 C         141.9277  139.0911  165.6910 C.ar    1  UNL1        0.0222
     27 C         142.6669  140.3961  165.7160 C.ar    1  UNL1        0.0814
     28 N         142.5976  141.2741  166.9302 N.ar    1  UNL1       -0.2415
     29 C         143.3368  142.5791  166.9552 C.ar    1  UNL1        0.1281
     30 C         144.1453  143.0060  165.7659 C.ar    1  UNL1        0.1575
     31 F         144.8845  144.3109  165.7909 F       1  UNL1       -0.2028
     32 C         144.2145  142.1280  164.5517 C.ar    1  UNL1        0.0350
     33 C         143.4753  140.8230  164.5268 C.ar    1  UNL1        0.0212
     34 C         143.5445  139.9449  163.3126 C.ar    1  UNL1        0.0382
     35 C         143.8820  138.0457  160.9991 C.3     1  UNL1        0.2525
     36 O         142.8745  137.7619  162.0734 O.3     1  UNL1       -0.4714
@<TRIPOS>BOND
     1    35    36    1
     2    36    24    1
     3    24    25   ar
     4    25    26   ar
     5    26    27   ar
     6    27    28   ar
     7    28    29   ar
     8    29    30   ar
     9    30    31    1
    10    30    32   ar
    11    32    21    1
    12    21    22    1
    13    21    20    1
    14     1    20    1
    15     1     2    1
    16     2     3    1
    17     3     4    1
    18     4     7    1
    19     7     9    1
    20     9    10    1
    21    10    11   ar
    22    11    12   ar
    23    12    13   ar
    24    13    14   ar
    25    14    15   ar
    26    14    16    1
    27    16    17    1
    28    17    18    1
    29    18    19    1
    30     4     5    1
    31     5     6    1
    32    32    33   ar
    33    33    34   ar
    34    34    24   ar
    35    33    27   ar
    36     6     1    1
    37    15    10   ar
    38    19    13    1
    39    22    23    1
    40     7     8    1
@<TRIPOS>MOLECULE
*****
 36 40 0 0 0
SMALL
GASTEIGER

@<TRIPOS>ATOM
      1 C         137.8401  142.8908  163.1484 C.3     1  UNL1        0.2380
      2 O         137.9213  142.6132  161.6766 O.3     1  UNL1       -0.3289
      3 C         137.9242  141.1980  161.1793 C.3     1  UNL1        0.1629
      4 C         137.8461  140.0604  162.1539 C.3     1  UNL1        0.1144
      5 C         137.7649  140.3380  163.6258 C.3     1  UNL1        0.1629
      6 O         137.7619  141.7533  164.1230 O.3     1  UNL1       -0.3289
      7 N         137.8490  138.6453  161.6567 N.3     1  UNL1       -0.2908
      8 H         137.2601  138.6245  160.8241 H       1  UNL1        0.1237
      9 C         139.1432  137.9825  161.2882 C.3     1  UNL1        0.0958
     10 C         140.3672  138.2099  162.1250 C.ar    1  UNL1       -0.0032
     11 C         140.5541  137.4474  163.4032 C.ar    1  UNL1        0.0004
     12 C         141.7780  137.6747  164.2400 C.ar    1  UNL1        0.0398
     13 C         142.8151  138.6645  163.7986 C.ar    1  UNL1        0.1724
     14 C         142.6282  139.4270  162.5205 C.ar    1  UNL1        0.1721
     15 C         141.4042  139.1997  161.6836 C.ar    1  UNL1        0.0371
     16 O         143.6652  140.4168  162.0792 O.3     1  UNL1       -0.4684
     17 C         144.8892  140.6442  162.9159 C.3     1  UNL1        0.2526
     18 C         145.0761  139.8817  164.1942 C.3     1  UNL1        0.2526
     19 O         144.0391  138.8919  164.6355 O.3     1  UNL1       -0.4684
     20 C         137.8371  144.3059  163.6457 C.3     1  UNL1        0.0951
     21 C         138.8717  144.7557  164.6344 C.3     1  UNL1        0.1400
     22 O         138.4589  145.5239  165.8548 O.3     1  UNL1       -0.3798
     23 H         137.4962  145.6433  165.8514 H       1  UNL1        0.2108
     24 C         140.9680  141.7694  167.2683 C.ar    1  UNL1        0.1388
     25 C         142.4153  141.4509  167.0366 C.ar    1  UNL1        0.0384
     26 C         143.1639  142.1278  165.9269 C.ar    1  UNL1        0.0222
     27 C         142.4652  143.1232  165.0489 C.ar    1  UNL1        0.0814
     28 N         143.2138  143.8001  163.9393 N.ar    1  UNL1       -0.2415
     29 C         142.5150  144.7956  163.0613 C.ar    1  UNL1        0.1281
     30 C         141.0676  145.1141  163.2930 C.ar    1  UNL1        0.1575
     31 F         140.3689  146.1095  162.4151 F       1  UNL1       -0.2028
     32 C         140.3190  144.4372  164.4027 C.ar    1  UNL1        0.0350
     33 C         141.0178  143.4417  165.2807 C.ar    1  UNL1        0.0212
     34 C         140.2693  142.7648  166.3903 C.ar    1  UNL1        0.0382
     35 C         139.3544  139.9031  168.0827 C.3     1  UNL1        0.2525
     36 O         140.2194  141.0924  168.3780 O.3     1  UNL1       -0.4714
@<TRIPOS>BOND
     1    35    36    1
     2    36    24    1
     3    24    25   ar
     4    25    26   ar
     5    26    27   ar
     6    27    28   ar
     7    28    29   ar
     8    29    30   ar
     9    30    31    1
    10    30    32   ar
    11    32    21    1
    12    21    22    1
    13    21    20    1
    14     1    20    1
    15     1     2    1
    16     2     3    1
    17     3     4    1
    18     4     7    1
    19     7     9    1
    20     9    10    1
    21    10    11   ar
    22    11    12   ar
    23    12    13   ar
    24    13    14   ar
    25    14    15   ar
    26    14    16    1
    27    16    17    1
    28    17    18    1
    29    18    19    1
    30     4     5    1
    31     5     6    1
    32    32    33   ar
    33    33    34   ar
    34    34    24   ar
    35    33    27   ar
    36     6     1    1
    37    15    10   ar
    38    19    13    1
    39    22    23    1
    40     7     8    1
@<TRIPOS>MOLECULE
*****
 36 40 0 0 0
SMALL
GASTEIGER

@<TRIPOS>ATOM
      1 C         143.1129  143.8507  162.0999 C.3     1  UNL1        0.2380
      2 O         142.5739  144.5027  163.3386 O.3     1  UNL1       -0.3289
      3 C         141.1488  144.9689  163.3812 C.3     1  UNL1        0.1629
      4 C         140.2628  144.7831  162.1852 C.3     1  UNL1        0.1144
      5 C         140.8018  144.1312  160.9465 C.3     1  UNL1        0.1629
      6 O         142.2269  143.6650  160.9039 O.3     1  UNL1       -0.3289
      7 N         138.8377  145.2494  162.2279 N.3     1  UNL1       -0.2908
      8 H         138.4995  145.2510  161.2656 H       1  UNL1        0.1237
      9 C         137.8265  144.4969  163.0410 C.3     1  UNL1        0.0958
     10 C         138.0144  143.0320  163.3027 C.ar    1  UNL1       -0.0032
     11 C         138.2556  142.5447  164.7007 C.ar    1  UNL1        0.0004
     12 C         138.4435  141.0797  164.9624 C.ar    1  UNL1        0.0398
     13 C         138.3902  140.1020  163.8260 C.ar    1  UNL1        0.1724
     14 C         138.1490  140.5892  162.4281 C.ar    1  UNL1        0.1721
     15 C         137.9610  142.0543  162.1664 C.ar    1  UNL1        0.0371
     16 O         138.0956  139.6115  161.2918 O.3     1  UNL1       -0.4684
     17 C         138.2836  138.1465  161.5534 C.3     1  UNL1        0.2526
     18 C         138.5248  137.6592  162.9514 C.3     1  UNL1        0.2526
     19 O         138.5781  138.6369  164.0878 O.3     1  UNL1       -0.4684
     20 C         144.5379  143.3845  162.0572 C.3     1  UNL1        0.0951
     21 C         144.9321  142.1130  162.7485 C.3     1  UNL1        0.1400
     22 O         146.3549  141.9003  163.1734 O.3     1  UNL1       -0.3798
     23 H         146.8849  142.6747  162.9279 H       1  UNL1        0.2108
     24 C         143.0695  141.7619  166.8299 C.ar    1  UNL1        0.1388
     25 C         142.0410  140.7031  167.0963 C.ar    1  UNL1        0.0384
     26 C         141.6333  139.7614  166.0023 C.ar    1  UNL1        0.0222
     27 C         142.2541  139.8784  164.6419 C.ar    1  UNL1        0.0814
     28 N         141.8464  138.9366  163.5479 N.ar    1  UNL1       -0.2415
     29 C         142.4673  139.0536  162.1875 C.ar    1  UNL1        0.1281
     30 C         143.4959  140.1124  161.9210 C.ar    1  UNL1        0.1575
     31 F         144.1168  140.2294  160.5606 F       1  UNL1       -0.2028
     32 C         143.9036  141.0542  163.0150 C.ar    1  UNL1        0.0350
     33 C         143.2827  140.9371  164.3755 C.ar    1  UNL1        0.0212
     34 C         143.6904  141.8789  165.4695 C.ar    1  UNL1        0.0382
     35 C         143.4639  142.2451  169.3520 C.3     1  UNL1        0.2525
     36 O         143.4772  142.7037  167.9239 O.3     1  UNL1       -0.4714
@<TRIPOS>BOND
     1    35    36    1
     2    36    24    1
     3    24    25   ar
     4    25    26   ar
     5    26    27   ar
     6    27    28   ar
     7    28    29   ar
     8    29    30   ar
     9    30    31    1
    10    30    32   ar
    11    32    21    1
    12    21    22    1
    13    21    20    1
    14     1    20    1
    15     1     2    1
    16     2     3    1
    17     3     4    1
    18     4     7    1
    19     7     9    1
    20     9    10    1
    21    10    11   ar
    22    11    12   ar
    23    12    13   ar
    24    13    14   ar
    25    14    15   ar
    26    14    16    1
    27    16    17    1
    28    17    18    1
    29    18    19    1
    30     4     5    1
    31     5     6    1
    32    32    33   ar
    33    33    34   ar
    34    34    24   ar
    35    33    27   ar
    36     6     1    1
    37    15    10   ar
    38    19    13    1
    39    22    23    1
    40     7     8    1
@<TRIPOS>MOLECULE
*****
 36 40 0 0 0
SMALL
GASTEIGER

@<TRIPOS>ATOM
      1 C         140.9687  144.7674  163.2644 C.3     1  UNL1        0.2380
      2 O         141.1633  144.3010  161.8521 O.3     1  UNL1       -0.3289
      3 C         142.5071  143.8083  161.4033 C.3     1  UNL1        0.1629
      4 C         143.6564  143.7821  162.3669 C.3     1  UNL1        0.1144
      5 C         143.4619  144.2485  163.7792 C.3     1  UNL1        0.1629
      6 O         142.1180  144.7411  164.2279 O.3     1  UNL1       -0.3289
      7 N         145.0002  143.2894  161.9181 N.3     1  UNL1       -0.2908
      8 H         145.6741  143.5895  162.6225 H       1  UNL1        0.1237
      9 C         145.2266  141.8228  161.6992 C.3     1  UNL1        0.0958
     10 C         144.4978  140.8176  162.5408 C.ar    1  UNL1       -0.0032
     11 C         144.9832  140.5058  163.9255 C.ar    1  UNL1        0.0004
     12 C         144.2543  139.5005  164.7670 C.ar    1  UNL1        0.0398
     13 C         143.0401  138.8071  164.2240 C.ar    1  UNL1        0.1724
     14 C         142.5548  139.1189  162.8394 C.ar    1  UNL1        0.1721
     15 C         143.2836  140.1242  161.9978 C.ar    1  UNL1        0.0371
     16 O         141.3406  138.4255  162.2964 O.3     1  UNL1       -0.4684
     17 C         140.6117  137.4203  163.1380 C.3     1  UNL1        0.2526
     18 C         141.0971  137.1084  164.5226 C.3     1  UNL1        0.2526
     19 O         142.3113  137.8018  165.0657 O.3     1  UNL1       -0.4684
     20 C         139.6249  145.2601  163.7132 C.3     1  UNL1        0.0951
     21 C         138.8962  144.5512  164.8162 C.3     1  UNL1        0.1400
     22 O         138.2814  145.3380  165.9356 O.3     1  UNL1       -0.3798
     23 H         138.4455  146.2835  165.7943 H       1  UNL1        0.2108
     24 C         141.1269  142.0915  167.8533 C.ar    1  UNL1        0.1388
     25 C         141.0131  140.5960  167.8369 C.ar    1  UNL1        0.0384
     26 C         140.1556  139.9203  166.8082 C.ar    1  UNL1        0.0222
     27 C         139.4121  140.7402  165.7958 C.ar    1  UNL1        0.0814
     28 N         138.5546  140.0645  164.7671 N.ar    1  UNL1       -0.2415
     29 C         137.8110  140.8843  163.7548 C.ar    1  UNL1        0.1281
     30 C         137.9249  142.3800  163.7711 C.ar    1  UNL1        0.1575
     31 F         137.1813  143.1998  162.7588 F       1  UNL1       -0.2028
     32 C         138.7823  143.0557  164.7998 C.ar    1  UNL1        0.0350
     33 C         139.5259  142.2357  165.8122 C.ar    1  UNL1        0.0212
     34 C         140.3834  142.9114  166.8409 C.ar    1  UNL1        0.0382
     35 C         143.3326  142.2043  169.2215 C.3     1  UNL1        0.2525
     36 O         141.9844  142.7672  168.8820 O.3     1  UNL1       -0.4714
@<TRIPOS>BOND
     1    35    36    1
     2    36    24    1
     3    24    25   ar
     4    25    26   ar
     5    26    27   ar
     6    27    28   ar
     7    28    29   ar
     8    29    30   ar
     9    30    31    1
    10    30    32   ar
    11    32    21    1
    12    21    22    1
    13    21    20    1
    14     1    20    1
    15     1     2    1
    16     2     3    1
    17     3     4    1
    18     4     7    1
    19     7     9    1
    20     9    10    1
    21    10    11   ar
    22    11    12   ar
    23    12    13   ar
    24    13    14   ar
    25    14    15   ar
    26    14    16    1
    27    16    17    1
    28    17    18    1
    29    18    19    1
    30     4     5    1
    31     5     6    1
    32    32    33   ar
    33    33    34   ar
    34    34    24   ar
    35    33    27   ar
    36     6     1    1
    37    15    10   ar
    38    19    13    1
    39    22    23    1
    40     7     8    1
@<TRIPOS>MOLECULE
*****
 36 40 0 0 0
SMALL
GASTEIGER

@<TRIPOS>ATOM
      1 C         143.0780  143.9481  162.4804 C.3     1  UNL1        0.2380
      2 O         142.4344  144.6250  163.6541 O.3     1  UNL1       -0.3289
      3 C         140.9820  144.9961  163.6022 C.3     1  UNL1        0.1629
      4 C         140.1731  144.6903  162.3765 C.3     1  UNL1        0.1144
      5 C         140.8166  144.0134  161.2028 C.3     1  UNL1        0.1629
      6 O         142.2691  143.6423  161.2547 O.3     1  UNL1       -0.3289
      7 N         138.7206  145.0614  162.3246 N.3     1  UNL1       -0.2908
      8 H         138.4483  145.0482  161.3417 H       1  UNL1        0.1237
      9 C         137.7092  144.2378  163.0653 C.3     1  UNL1        0.0958
     10 C         137.9075  142.7580  163.2097 C.ar    1  UNL1       -0.0032
     11 C         137.8975  141.8779  161.9950 C.ar    1  UNL1        0.0004
     12 C         138.0959  140.3981  162.1394 C.ar    1  UNL1        0.0398
     13 C         138.3043  139.7984  163.4984 C.ar    1  UNL1        0.1724
     14 C         138.3143  140.6784  164.7130 C.ar    1  UNL1        0.1721
     15 C         138.1159  142.1583  164.5687 C.ar    1  UNL1        0.0371
     16 O         138.5227  140.0787  166.0720 O.3     1  UNL1       -0.4684
     17 C         138.7211  138.5990  166.2164 C.3     1  UNL1        0.2526
     18 C         138.7111  137.7188  165.0017 C.3     1  UNL1        0.2526
     19 O         138.5027  138.3186  163.6427 O.3     1  UNL1       -0.4684
     20 C         144.5304  143.5770  162.5323 C.3     1  UNL1        0.0951
     21 C         144.9461  142.2519  163.0990 C.3     1  UNL1        0.1400
     22 O         146.3975  141.8752  163.1386 O.3     1  UNL1       -0.3798
     23 H         146.9286  142.5943  162.7620 H       1  UNL1        0.2108
     24 C         143.2907  139.0221  160.4385 C.ar    1  UNL1        0.1388
     25 C         142.2551  138.0737  160.9657 C.ar    1  UNL1        0.0384
     26 C         141.7713  138.2019  162.3798 C.ar    1  UNL1        0.0222
     27 C         142.3231  139.2784  163.2666 C.ar    1  UNL1        0.0814
     28 N         141.8392  139.4066  164.6806 N.ar    1  UNL1       -0.2415
     29 C         142.3910  140.4831  165.5675 C.ar    1  UNL1        0.1281
     30 C         143.4267  141.4316  165.0403 C.ar    1  UNL1        0.1575
     31 F         143.9785  142.5082  165.9271 F       1  UNL1       -0.2028
     32 C         143.9105  141.3035  163.6262 C.ar    1  UNL1        0.0350
     33 C         143.3587  140.2268  162.7394 C.ar    1  UNL1        0.0212
     34 C         143.8425  140.0987  161.3254 C.ar    1  UNL1        0.0382
     35 C         142.8415  139.1753  157.8842 C.3     1  UNL1        0.2525
     36 O         143.7745  138.8940  159.0245 O.3     1  UNL1       -0.4714
@<TRIPOS>BOND
     1    35    36    1
     2    36    24    1
     3    24    25   ar
     4    25    26   ar
     5    26    27   ar
     6    27    28   ar
     7    28    29   ar
     8    29    30   ar
     9    30    31    1
    10    30    32   ar
    11    32    21    1
    12    21    22    1
    13    21    20    1
    14     1    20    1
    15     1     2    1
    16     2     3    1
    17     3     4    1
    18     4     7    1
    19     7     9    1
    20     9    10    1
    21    10    11   ar
    22    11    12   ar
    23    12    13   ar
    24    13    14   ar
    25    14    15   ar
    26    14    16    1
    27    16    17    1
    28    17    18    1
    29    18    19    1
    30     4     5    1
    31     5     6    1
    32    32    33   ar
    33    33    34   ar
    34    34    24   ar
    35    33    27   ar
    36     6     1    1
    37    15    10   ar
    38    19    13    1
    39    22    23    1
    40     7     8    1
@<TRIPOS>MOLECULE
*****
 36 40 0 0 0
SMALL
GASTEIGER

@<TRIPOS>ATOM
      1 C         141.8644  138.0471  163.6896 C.3     1  UNL1        0.2380
      2 O         142.2670  138.4424  162.2998 O.3     1  UNL1       -0.3289
      3 C         143.4996  139.2690  162.0825 C.3     1  UNL1        0.1629
      4 C         144.3298  139.7003  163.2551 C.3     1  UNL1        0.1144
      5 C         143.9272  139.3050  164.6449 C.3     1  UNL1        0.1629
      6 O         142.6945  138.4783  164.8622 O.3     1  UNL1       -0.3289
      7 N         145.5625  140.5268  163.0378 N.3     1  UNL1       -0.2908
      8 H         145.7468  140.5225  162.0346 H       1  UNL1        0.1237
      9 C         145.5910  141.9608  163.4772 C.3     1  UNL1        0.0958
     10 C         144.3857  142.8307  163.2768 C.ar    1  UNL1       -0.0032
     11 C         143.6477  143.3749  164.4640 C.ar    1  UNL1        0.0004
     12 C         142.4423  144.2448  164.2636 C.ar    1  UNL1        0.0398
     13 C         141.9748  144.5707  162.8761 C.ar    1  UNL1        0.1724
     14 C         142.7127  144.0267  161.6889 C.ar    1  UNL1        0.1721
     15 C         143.9182  143.1566  161.8892 C.ar    1  UNL1        0.0371
     16 O         142.2453  144.3525  160.3014 O.3     1  UNL1       -0.4684
     17 C         141.0399  145.2225  160.1010 C.3     1  UNL1        0.2526
     18 C         140.3019  145.7666  161.2882 C.3     1  UNL1        0.2526
     19 O         140.7694  145.4407  162.6758 O.3     1  UNL1       -0.4684
     20 C         140.6317  137.2205  163.9069 C.3     1  UNL1        0.0951
     21 C         139.3759  137.8655  164.4139 C.3     1  UNL1        0.1400
     22 O         138.6096  137.2338  165.5381 O.3     1  UNL1       -0.3798
     23 H         139.0587  136.4213  165.8191 H       1  UNL1        0.2108
     24 C         140.1247  141.7937  166.4775 C.ar    1  UNL1        0.1388
     25 C         139.6353  143.0703  165.8604 C.ar    1  UNL1        0.0384
     26 C         138.8963  143.0375  164.5555 C.ar    1  UNL1        0.0222
     27 C         138.6467  141.7281  163.8676 C.ar    1  UNL1        0.0814
     28 N         137.9078  141.6953  162.5627 N.ar    1  UNL1       -0.2415
     29 C         137.6582  140.3859  161.8748 C.ar    1  UNL1        0.1281
     30 C         138.1476  139.1092  162.4919 C.ar    1  UNL1        0.1575
     31 F         137.8980  137.7999  161.8041 F       1  UNL1       -0.2028
     32 C         138.8865  139.1420  163.7969 C.ar    1  UNL1        0.0350
     33 C         139.1361  140.4515  164.4847 C.ar    1  UNL1        0.0212
     34 C         139.8751  140.4843  165.7896 C.ar    1  UNL1        0.0382
     35 C         142.3282  142.1494  167.8070 C.3     1  UNL1        0.2525
     36 O         140.8637  141.8265  167.7824 O.3     1  UNL1       -0.4714
@<TRIPOS>BOND
     1    35    36    1
     2    36    24    1
     3    24    25   ar
     4    25    26   ar
     5    26    27   ar
     6    27    28   ar
     7    28    29   ar
     8    29    30   ar
     9    30    31    1
    10    30    32   ar
    11    32    21    1
    12    21    22    1
    13    21    20    1
    14     1    20    1
    15     1     2    1
    16     2     3    1
    17     3     4    1
    18     4     7    1
    19     7     9    1
    20     9    10    1
    21    10    11   ar
    22    11    12   ar
    23    12    13   ar
    24    13    14   ar
    25    14    15   ar
    26    14    16    1
    27    16    17    1
    28    17    18    1
    29    18    19    1
    30     4     5    1
    31     5     6    1
    32    32    33   ar
    33    33    34   ar
    34    34    24   ar
    35    33    27   ar
    36     6     1    1
    37    15    10   ar
    38    19    13    1
    39    22    23    1
    40     7     8    1
@<TRIPOS>MOLECULE
*****
 36 40 0 0 0
SMALL
GASTEIGER

@<TRIPOS>ATOM
      1 C         142.6547  144.4149  163.4350 C.3     1  UNL1        0.2380
      2 O         141.5149  144.6459  164.3823 O.3     1  UNL1       -0.3289
      3 C         140.1006  144.5101  163.9014 C.3     1  UNL1        0.1629
      4 C         139.8261  144.1433  162.4730 C.3     1  UNL1        0.1144
      5 C         140.9659  143.9123  161.5256 C.3     1  UNL1        0.1629
      6 O         142.3803  144.0481  162.0067 O.3     1  UNL1       -0.3289
      7 N         138.4118  144.0075  161.9920 N.3     1  UNL1       -0.2908
      8 H         138.4529  143.9254  160.9762 H       1  UNL1        0.1237
      9 C         137.5577  142.8767  162.4837 C.3     1  UNL1        0.0958
     10 C         138.1984  141.6236  163.0026 C.ar    1  UNL1       -0.0032
     11 C         137.8993  141.1489  164.3938 C.ar    1  UNL1        0.0004
     12 C         138.5399  139.8958  164.9126 C.ar    1  UNL1        0.0398
     13 C         139.4796  139.1173  164.0404 C.ar    1  UNL1        0.1724
     14 C         139.7788  139.5919  162.6493 C.ar    1  UNL1        0.1721
     15 C         139.1381  140.8451  162.1303 C.ar    1  UNL1        0.0371
     16 O         140.7185  138.8134  161.7771 O.3     1  UNL1       -0.4684
     17 C         141.3591  137.5603  162.2959 C.3     1  UNL1        0.2526
     18 C         141.0600  137.0856  163.6871 C.3     1  UNL1        0.2526
     19 O         140.1203  137.8642  164.5594 O.3     1  UNL1       -0.4684
     20 C         144.0690  144.5507  163.9160 C.3     1  UNL1        0.0951
     21 C         144.5670  143.6848  165.0351 C.3     1  UNL1        0.1400
     22 O         145.3030  144.2996  166.1885 O.3     1  UNL1       -0.3798
     23 H         145.3701  145.2581  166.0552 H       1  UNL1        0.2108
     24 C         141.4136  141.8512  167.6702 C.ar    1  UNL1        0.1388
     25 C         141.1757  140.3706  167.6359 C.ar    1  UNL1        0.0384
     26 C         141.9888  139.5012  166.7232 C.ar    1  UNL1        0.0222
     27 C         143.0399  140.1124  165.8448 C.ar    1  UNL1        0.0814
     28 N         143.8530  139.2430  164.9321 N.ar    1  UNL1       -0.2415
     29 C         144.9041  139.8542  164.0537 C.ar    1  UNL1        0.1281
     30 C         145.1421  141.3349  164.0880 C.ar    1  UNL1        0.1575
     31 F         146.1932  141.9461  163.2097 F       1  UNL1       -0.2028
     32 C         144.3290  142.2043  165.0007 C.ar    1  UNL1        0.0350
     33 C         143.2779  141.5930  165.8791 C.ar    1  UNL1        0.0212
     34 C         142.4647  142.4624  166.7918 C.ar    1  UNL1        0.0382
     35 C         141.2183  143.2860  169.8272 C.3     1  UNL1        0.2525
     36 O         140.6005  142.7205  168.5829 O.3     1  UNL1       -0.4714
@<TRIPOS>BOND
     1    35    36    1
     2    36    24    1
     3    24    25   ar
     4    25    26   ar
     5    26    27   ar
     6    27    28   ar
     7    28    29   ar
     8    29    30   ar
     9    30    31    1
    10    30    32   ar
    11    32    21    1
    12    21    22    1
    13    21    20    1
    14     1    20    1
    15     1     2    1
    16     2     3    1
    17     3     4    1
    18     4     7    1
    19     7     9    1
    20     9    10    1
    21    10    11   ar
    22    11    12   ar
    23    12    13   ar
    24    13    14   ar
    25    14    15   ar
    26    14    16    1
    27    16    17    1
    28    17    18    1
    29    18    19    1
    30     4     5    1
    31     5     6    1
    32    32    33   ar
    33    33    34   ar
    34    34    24   ar
    35    33    27   ar
    36     6     1    1
    37    15    10   ar
    38    19    13    1
    39    22    23    1
    40     7     8    1
@<TRIPOS>MOLECULE
*****
 36 40 0 0 0
SMALL
GASTEIGER

@<TRIPOS>ATOM
      1 C         140.6605  140.1597  160.8382 C.3     1  UNL1        0.2380
      2 O         141.3607  138.8923  161.2299 O.3     1  UNL1       -0.3289
      3 C         142.7866  138.9357  161.6933 C.3     1  UNL1        0.1629
      4 C         143.5124  140.2465  161.7651 C.3     1  UNL1        0.1144
      5 C         142.8122  141.5139  161.3734 C.3     1  UNL1        0.1629
      6 O         141.3862  141.4705  160.9100 O.3     1  UNL1       -0.3289
      7 N         144.9383  140.2899  162.2285 N.3     1  UNL1       -0.2908
      8 H         145.4425  140.8884  161.5742 H       1  UNL1        0.1237
      9 C         145.2644  140.7839  163.6067 C.3     1  UNL1        0.0958
     10 C         144.3306  140.4999  164.7457 C.ar    1  UNL1       -0.0032
     11 C         144.1109  139.0876  165.2011 C.ar    1  UNL1        0.0004
     12 C         143.1771  138.8035  166.3401 C.ar    1  UNL1        0.0398
     13 C         142.4629  139.9316  167.0236 C.ar    1  UNL1        0.1724
     14 C         142.6825  141.3438  166.5683 C.ar    1  UNL1        0.1721
     15 C         143.6164  141.6280  165.4293 C.ar    1  UNL1        0.0371
     16 O         141.9683  142.4719  167.2519 O.3     1  UNL1       -0.4684
     17 C         141.0345  142.1879  168.3908 C.3     1  UNL1        0.2526
     18 C         140.8149  140.7756  168.8462 C.3     1  UNL1        0.2526
     19 O         141.5291  139.6475  168.1627 O.3     1  UNL1       -0.4684
     20 C         139.2345  140.1163  160.3748 C.3     1  UNL1        0.0951
     21 C         138.1191  140.1374  161.3775 C.3     1  UNL1        0.1400
     22 O         136.7011  139.9493  160.9259 O.3     1  UNL1       -0.3798
     23 H         136.6816  139.8277  159.9638 H       1  UNL1        0.2108
     24 C         138.6194  144.3070  162.9944 C.ar    1  UNL1        0.1388
     25 C         138.9220  144.5161  164.4486 C.ar    1  UNL1        0.0384
     26 C         139.0577  143.3355  165.3638 C.ar    1  UNL1        0.0222
     27 C         138.8909  141.9457  164.8249 C.ar    1  UNL1        0.0814
     28 N         139.0267  140.7650  165.7401 N.ar    1  UNL1       -0.2415
     29 C         138.8599  139.3752  165.2012 C.ar    1  UNL1        0.1281
     30 C         138.5574  139.1659  163.7469 C.ar    1  UNL1        0.1575
     31 F         138.3906  137.7761  163.2080 F       1  UNL1       -0.2028
     32 C         138.4216  140.3466  162.8317 C.ar    1  UNL1        0.0350
     33 C         138.5884  141.7365  163.3707 C.ar    1  UNL1        0.0212
     34 C         138.4527  142.9171  162.4555 C.ar    1  UNL1        0.0382
     35 C         139.7027  146.2515  161.6545 C.3     1  UNL1        0.2525
     36 O         138.4837  145.4876  162.0792 O.3     1  UNL1       -0.4714
@<TRIPOS>BOND
     1    35    36    1
     2    36    24    1
     3    24    25   ar
     4    25    26   ar
     5    26    27   ar
     6    27    28   ar
     7    28    29   ar
     8    29    30   ar
     9    30    31    1
    10    30    32   ar
    11    32    21    1
    12    21    22    1
    13    21    20    1
    14     1    20    1
    15     1     2    1
    16     2     3    1
    17     3     4    1
    18     4     7    1
    19     7     9    1
    20     9    10    1
    21    10    11   ar
    22    11    12   ar
    23    12    13   ar
    24    13    14   ar
    25    14    15   ar
    26    14    16    1
    27    16    17    1
    28    17    18    1
    29    18    19    1
    30     4     5    1
    31     5     6    1
    32    32    33   ar
    33    33    34   ar
    34    34    24   ar
    35    33    27   ar
    36     6     1    1
    37    15    10   ar
    38    19    13    1
    39    22    23    1
    40     7     8    1
@<TRIPOS>MOLECULE
*****
 36 40 0 0 0
SMALL
GASTEIGER

@<TRIPOS>ATOM
      1 C         143.6365  142.1730  161.1521 C.3     1  UNL1        0.2380
      2 O         142.5476  142.4733  160.1651 O.3     1  UNL1       -0.3289
      3 C         141.6985  141.3616  159.6237 C.3     1  UNL1        0.1629
      4 C         141.9383  139.9495  160.0694 C.3     1  UNL1        0.1144
      5 C         143.0272  139.6492  161.0564 C.3     1  UNL1        0.1629
      6 O         143.8763  140.7610  161.5978 O.3     1  UNL1       -0.3289
      7 N         141.0892  138.8378  159.5280 N.3     1  UNL1       -0.2908
      8 H         141.5167  137.9643  159.8356 H       1  UNL1        0.1237
      9 C         139.6357  138.7596  159.8902 C.3     1  UNL1        0.0958
     10 C         139.1941  139.0667  161.2904 C.ar    1  UNL1       -0.0032
     11 C         138.7148  140.4444  161.6405 C.ar    1  UNL1        0.0004
     12 C         138.2732  140.7515  163.0407 C.ar    1  UNL1        0.0398
     13 C         138.3108  139.6810  164.0908 C.ar    1  UNL1        0.1724
     14 C         138.7900  138.3034  163.7407 C.ar    1  UNL1        0.1721
     15 C         139.2317  137.9963  162.3405 C.ar    1  UNL1        0.0371
     16 O         138.8276  137.2330  164.7908 O.3     1  UNL1       -0.4684
     17 C         138.3860  137.5401  166.1910 C.3     1  UNL1        0.2526
     18 C         137.9067  138.9177  166.5412 C.3     1  UNL1        0.2526
     19 O         137.8691  139.9882  165.4911 O.3     1  UNL1       -0.4684
     20 C         144.4855  143.2847  161.6935 C.3     1  UNL1        0.0951
     21 C         143.9663  144.1545  162.7999 C.3     1  UNL1        0.1400
     22 O         144.1476  145.6419  162.7325 O.3     1  UNL1       -0.3798
     23 H         144.6160  145.8739  161.9154 H       1  UNL1        0.2108
     24 C         139.5423  144.7625  163.3553 C.ar    1  UNL1        0.1388
     25 C         138.8419  144.1447  164.5290 C.ar    1  UNL1        0.0384
     26 C         139.6161  143.3243  165.5176 C.ar    1  UNL1        0.0222
     27 C         141.0908  143.1216  165.3326 C.ar    1  UNL1        0.0814
     28 N         141.8650  142.3011  166.3212 N.ar    1  UNL1       -0.2415
     29 C         143.3396  142.0984  166.1361 C.ar    1  UNL1        0.1281
     30 C         144.0401  142.7162  164.9623 C.ar    1  UNL1        0.1575
     31 F         145.5148  142.5135  164.7772 F       1  UNL1       -0.2028
     32 C         143.2659  143.5367  163.9737 C.ar    1  UNL1        0.0350
     33 C         141.7912  143.7394  164.1588 C.ar    1  UNL1        0.0212
     34 C         141.0170  144.5598  163.1702 C.ar    1  UNL1        0.0382
     35 C         139.4917  146.3624  161.3089 C.3     1  UNL1        0.2525
     36 O         138.7681  145.5830  162.3666 O.3     1  UNL1       -0.4714
@<TRIPOS>BOND
     1    35    36    1
     2    36    24    1
     3    24    25   ar
     4    25    26   ar
     5    26    27   ar
     6    27    28   ar
     7    28    29   ar
     8    29    30   ar
     9    30    31    1
    10    30    32   ar
    11    32    21    1
    12    21    22    1
    13    21    20    1
    14     1    20    1
    15     1     2    1
    16     2     3    1
    17     3     4    1
    18     4     7    1
    19     7     9    1
    20     9    10    1
    21    10    11   ar
    22    11    12   ar
    23    12    13   ar
    24    13    14   ar
    25    14    15   ar
    26    14    16    1
    27    16    17    1
    28    17    18    1
    29    18    19    1
    30     4     5    1
    31     5     6    1
    32    32    33   ar
    33    33    34   ar
    34    34    24   ar
    35    33    27   ar
    36     6     1    1
    37    15    10   ar
    38    19    13    1
    39    22    23    1
    40     7     8    1
