@<TRIPOS>MOLECULE
*****
 27 30 0 0 0
SMALL
GASTEIGER

@<TRIPOS>ATOM
      1 C         138.6511  139.1104  166.8698 C.ar    1  UNL1        0.1387
      2 C         138.4753  138.5697  165.4817 C.ar    1  UNL1        0.0370
      3 C         139.3917  139.0159  164.3813 C.ar    1  UNL1        0.0061
      4 C         140.4841  140.0028  164.6689 C.ar    1  UNL1        0.0348
      5 C         141.4005  140.4490  163.5684 C.ar    1  UNL1        0.1496
      6 N         142.4929  141.4359  163.8560 N.ar    1  UNL1       -0.2176
      7 C         142.6688  141.9767  165.2441 C.ar    1  UNL1        0.1507
      8 C         141.7523  141.5305  166.3445 C.ar    1  UNL1        0.0278
      9 C         140.6599  140.5435  166.0569 C.ar    1  UNL1        0.0080
     10 C         139.7435  140.0973  167.1573 C.ar    1  UNL1        0.0371
     11 C         141.9282  142.0712  167.7326 C.ar    1  UNL1        0.0044
     12 C         143.1210  141.6695  168.5484 C.ar    1  UNL1        0.0002
     13 C         143.2969  142.2103  169.9365 C.ar    1  UNL1        0.0023
     14 C         142.2798  143.1527  170.5087 C.ar    1  UNL1        0.0296
     15 C         141.0870  143.5545  169.6928 C.ar    1  UNL1        0.1401
     16 F         140.0700  144.4969  170.2649 F       1  UNL1       -0.2042
     17 C         140.9111  143.0138  168.3048 C.ar    1  UNL1        0.0297
     18 N         141.2247  139.9083  162.1804 N.ar    1  UNL1       -0.2716
     19 C         141.8962  138.6911  161.6166 C.ar    1  UNL1        0.1836
     20 N         141.4330  138.5203  160.2002 N.ar    1  UNL1       -0.2280
     21 C         140.4752  139.6319  159.8885 C.ar    1  UNL1        0.0786
     22 C         139.7700  139.8478  158.5823 C.3     1  UNL1        0.0538
     23 C         140.3465  140.4897  161.1124 C.ar    1  UNL1        0.0976
     24 C         136.7464  137.5632  167.7231 C.3     1  UNL1        0.2525
     25 O         137.7346  138.6642  167.9702 O.3     1  UNL1       -0.4714
     26 C         143.7611  142.9636  165.5317 C.1     1  UNL1        0.1198
     27 N         144.8535  143.9506  165.8193 N.1     1  UNL1       -0.1893
@<TRIPOS>BOND
     1    24    25    1
     2    25     1    1
     3     1     2   ar
     4     2     3   ar
     5     3     4   ar
     6     4     5   ar
     7     5    18    1
     8    18    19   ar
     9    19    20   ar
    10    20    21   ar
    11    21    22    1
    12    21    23   ar
    13     5     6   ar
    14     6     7   ar
    15     7    26    1
    16    26    27    3
    17     7     8   ar
    18     8    11    1
    19    11    12   ar
    20    12    13   ar
    21    13    14   ar
    22    14    15   ar
    23    15    16    1
    24    15    17   ar
    25     8     9   ar
    26     9    10   ar
    27    10     1   ar
    28     9     4   ar
    29    23    18   ar
    30    17    11   ar
@<TRIPOS>MOLECULE
*****
 27 30 0 0 0
SMALL
GASTEIGER

@<TRIPOS>ATOM
      1 C         140.4011  143.2736  164.1875 C.ar    1  UNL1        0.1387
      2 C         140.5719  143.0021  162.7222 C.ar    1  UNL1        0.0370
      3 C         141.3606  141.8101  162.2672 C.ar    1  UNL1        0.0061
      4 C         141.9787  140.8896  163.2774 C.ar    1  UNL1        0.0348
      5 C         142.7674  139.6977  162.8224 C.ar    1  UNL1        0.1496
      6 N         143.3855  138.7772  163.8327 N.ar    1  UNL1       -0.2176
      7 C         143.2147  139.0486  165.2980 C.ar    1  UNL1        0.1507
      8 C         142.4259  140.2406  165.7531 C.ar    1  UNL1        0.0278
      9 C         141.8079  141.1611  164.7427 C.ar    1  UNL1        0.0080
     10 C         141.0191  142.3531  165.1977 C.ar    1  UNL1        0.0371
     11 C         142.2552  140.5120  167.2183 C.ar    1  UNL1        0.0044
     12 C         141.1158  139.8886  167.9688 C.ar    1  UNL1        0.0002
     13 C         140.9450  140.1601  169.4342 C.ar    1  UNL1        0.0023
     14 C         141.9137  141.0550  170.1490 C.ar    1  UNL1        0.0296
     15 C         143.0531  141.6783  169.3985 C.ar    1  UNL1        0.1401
     16 F         144.0217  142.5732  170.1133 F       1  UNL1       -0.2042
     17 C         143.2238  141.4069  167.9332 C.ar    1  UNL1        0.0297
     18 N         142.9382  139.4262  161.3571 N.ar    1  UNL1       -0.2716
     19 C         144.0232  139.9758  160.4791 C.ar    1  UNL1        0.1836
     20 N         143.8096  139.4468  159.0919 N.ar    1  UNL1       -0.2280
     21 C         142.5925  138.5702  159.1124 C.ar    1  UNL1        0.0786
     22 C         142.0153  137.8354  157.9390 C.3     1  UNL1        0.0538
     23 C         142.0540  138.5575  160.5124 C.ar    1  UNL1        0.0976
     24 C         138.1216  144.3707  164.7791 C.3     1  UNL1        0.2525
     25 O         139.6123  144.4655  164.6425 O.3     1  UNL1       -0.4714
     26 C         143.8327  138.1281  166.3083 C.1     1  UNL1        0.1198
     27 N         144.4508  137.2075  167.3186 N.1     1  UNL1       -0.1893
@<TRIPOS>BOND
     1    24    25    1
     2    25     1    1
     3     1     2   ar
     4     2     3   ar
     5     3     4   ar
     6     4     5   ar
     7     5    18    1
     8    18    19   ar
     9    19    20   ar
    10    20    21   ar
    11    21    22    1
    12    21    23   ar
    13     5     6   ar
    14     6     7   ar
    15     7    26    1
    16    26    27    3
    17     7     8   ar
    18     8    11    1
    19    11    12   ar
    20    12    13   ar
    21    13    14   ar
    22    14    15   ar
    23    15    16    1
    24    15    17   ar
    25     8     9   ar
    26     9    10   ar
    27    10     1   ar
    28     9     4   ar
    29    23    18   ar
    30    17    11   ar
@<TRIPOS>MOLECULE
*****
 27 30 0 0 0
SMALL
GASTEIGER

@<TRIPOS>ATOM
      1 C         139.4155  138.2872  165.0522 C.ar    1  UNL1        0.1387
      2 C         139.6355  137.9114  163.6169 C.ar    1  UNL1        0.0370
      3 C         140.6885  138.6126  162.8109 C.ar    1  UNL1        0.0061
      4 C         141.5215  139.6895  163.4403 C.ar    1  UNL1        0.0348
      5 C         142.5745  140.3907  162.6344 C.ar    1  UNL1        0.1496
      6 N         143.4075  141.4677  163.2638 N.ar    1  UNL1       -0.2176
      7 C         143.1875  141.8435  164.6993 C.ar    1  UNL1        0.1507
      8 C         142.1345  141.1423  165.5052 C.ar    1  UNL1        0.0278
      9 C         141.3015  140.0653  164.8757 C.ar    1  UNL1        0.0080
     10 C         140.2485  139.3641  165.6817 C.ar    1  UNL1        0.0371
     11 C         141.9145  141.5181  166.9406 C.ar    1  UNL1        0.0044
     12 C         140.8944  142.5590  167.2955 C.ar    1  UNL1        0.0002
     13 C         140.6744  142.9348  168.7310 C.ar    1  UNL1        0.0023
     14 C         141.4745  142.2697  169.8114 C.ar    1  UNL1        0.0296
     15 C         142.4946  141.2288  169.4565 C.ar    1  UNL1        0.1401
     16 F         143.2947  140.5637  170.5370 F       1  UNL1       -0.2042
     17 C         142.7146  140.8530  168.0211 C.ar    1  UNL1        0.0297
     18 N         142.7945  140.0149  161.1990 N.ar    1  UNL1       -0.2716
     19 C         143.7806  139.0039  160.6934 C.ar    1  UNL1        0.1836
     20 N         143.6626  138.9483  159.1991 N.ar    1  UNL1       -0.2280
     21 C         142.6036  139.9249  158.7811 C.ar    1  UNL1        0.0786
     22 C         142.1591  140.1949  157.3741 C.3     1  UNL1        0.0538
     23 C         142.0670  140.5841  160.0171 C.ar    1  UNL1        0.0976
     24 C         137.6225  138.3271  166.9320 C.3     1  UNL1        0.2525
     25 O         138.3625  137.5860  165.8582 O.3     1  UNL1       -0.4714
     26 C         144.0205  142.9205  165.3287 C.1     1  UNL1        0.1198
     27 N         144.8535  143.9975  165.9582 N.1     1  UNL1       -0.1893
@<TRIPOS>BOND
     1    24    25    1
     2    25     1    1
     3     1     2   ar
     4     2     3   ar
     5     3     4   ar
     6     4     5   ar
     7     5    18    1
     8    18    19   ar
     9    19    20   ar
    10    20    21   ar
    11    21    22    1
    12    21    23   ar
    13     5     6   ar
    14     6     7   ar
    15     7    26    1
    16    26    27    3
    17     7     8   ar
    18     8    11    1
    19    11    12   ar
    20    12    13   ar
    21    13    14   ar
    22    14    15   ar
    23    15    16    1
    24    15    17   ar
    25     8     9   ar
    26     9    10   ar
    27    10     1   ar
    28     9     4   ar
    29    23    18   ar
    30    17    11   ar
@<TRIPOS>MOLECULE
*****
 27 30 0 0 0
SMALL
GASTEIGER

@<TRIPOS>ATOM
      1 C         140.3685  143.5757  163.8106 C.ar    1  UNL1        0.1387
      2 C         140.5027  143.2256  162.3582 C.ar    1  UNL1        0.0370
      3 C         141.2420  141.9857  161.9508 C.ar    1  UNL1        0.0061
      4 C         141.8471  141.0958  162.9957 C.ar    1  UNL1        0.0348
      5 C         142.5865  139.8559  162.5882 C.ar    1  UNL1        0.1496
      6 N         143.1916  138.9660  163.6331 N.ar    1  UNL1       -0.2176
      7 C         143.0574  139.3161  165.0856 C.ar    1  UNL1        0.1507
      8 C         142.3181  140.5560  165.4930 C.ar    1  UNL1        0.0278
      9 C         141.7129  141.4459  164.4480 C.ar    1  UNL1        0.0080
     10 C         140.9736  142.6858  164.8555 C.ar    1  UNL1        0.0371
     11 C         142.1839  140.9060  166.9454 C.ar    1  UNL1        0.0044
     12 C         143.1498  141.8631  167.5786 C.ar    1  UNL1        0.0002
     13 C         143.0156  142.2131  169.0311 C.ar    1  UNL1        0.0023
     14 C         141.9154  141.6061  169.8502 C.ar    1  UNL1        0.0296
     15 C         140.9494  140.6490  169.2170 C.ar    1  UNL1        0.1401
     16 F         139.8493  140.0419  170.0362 F       1  UNL1       -0.2042
     17 C         141.0836  140.2990  167.7647 C.ar    1  UNL1        0.0297
     18 N         142.7207  139.5059  161.1359 N.ar    1  UNL1       -0.2716
     19 C         143.8774  139.8567  160.2476 C.ar    1  UNL1        0.1836
     20 N         143.5934  139.3112  158.8794 N.ar    1  UNL1       -0.2280
     21 C         142.2611  138.6233  158.9221 C.ar    1  UNL1        0.0786
     22 C         141.5866  137.9358  157.7722 C.3     1  UNL1        0.0538
     23 C         141.7217  138.7436  160.3167 C.ar    1  UNL1        0.0976
     24 C         138.6155  144.7557  165.3220 C.3     1  UNL1        0.2525
     25 O         139.6292  144.8156  164.2180 O.3     1  UNL1       -0.4714
     26 C         143.6625  138.4262  166.1305 C.1     1  UNL1        0.1198
     27 N         144.2676  137.5362  167.1755 N.1     1  UNL1       -0.1893
@<TRIPOS>BOND
     1    24    25    1
     2    25     1    1
     3     1     2   ar
     4     2     3   ar
     5     3     4   ar
     6     4     5   ar
     7     5    18    1
     8    18    19   ar
     9    19    20   ar
    10    20    21   ar
    11    21    22    1
    12    21    23   ar
    13     5     6   ar
    14     6     7   ar
    15     7    26    1
    16    26    27    3
    17     7     8   ar
    18     8    11    1
    19    11    12   ar
    20    12    13   ar
    21    13    14   ar
    22    14    15   ar
    23    15    16    1
    24    15    17   ar
    25     8     9   ar
    26     9    10   ar
    27    10     1   ar
    28     9     4   ar
    29    23    18   ar
    30    17    11   ar
@<TRIPOS>MOLECULE
*****
 27 30 0 0 0
SMALL
GASTEIGER

@<TRIPOS>ATOM
      1 C         143.3741  142.0097  163.9476 C.ar    1  UNL1        0.1387
      2 C         143.0232  141.8787  162.4951 C.ar    1  UNL1        0.0370
      3 C         141.7755  141.1527  162.0875 C.ar    1  UNL1        0.0061
      4 C         140.8786  140.5578  163.1323 C.ar    1  UNL1        0.0348
      5 C         139.6309  139.8318  162.7247 C.ar    1  UNL1        0.1496
      6 N         138.7341  139.2369  163.7695 N.ar    1  UNL1       -0.2176
      7 C         139.0849  139.3679  165.2221 C.ar    1  UNL1        0.1507
      8 C         140.3327  140.0939  165.6297 C.ar    1  UNL1        0.0278
      9 C         141.2295  140.6888  164.5848 C.ar    1  UNL1        0.0080
     10 C         142.4772  141.4148  164.9924 C.ar    1  UNL1        0.0371
     11 C         140.6836  140.2249  167.0821 C.ar    1  UNL1        0.0044
     12 C         141.7987  139.4058  167.6612 C.ar    1  UNL1        0.0002
     13 C         142.1496  139.5369  169.1137 C.ar    1  UNL1        0.0023
     14 C         141.3853  140.4871  169.9871 C.ar    1  UNL1        0.0296
     15 C         140.2701  141.3062  169.4081 C.ar    1  UNL1        0.1401
     16 F         139.5058  142.2564  170.2815 F       1  UNL1       -0.2042
     17 C         139.9192  141.1752  167.9556 C.ar    1  UNL1        0.0297
     18 N         139.2800  139.7008  161.2723 N.ar    1  UNL1       -0.2716
     19 C         139.6261  138.5437  160.3825 C.ar    1  UNL1        0.1836
     20 N         139.0814  138.8316  159.0148 N.ar    1  UNL1       -0.2280
     21 C         138.3987  140.1665  159.0592 C.ar    1  UNL1        0.0786
     22 C         137.7136  140.8451  157.9103 C.3     1  UNL1        0.0538
     23 C         138.5215  140.7037  160.4545 C.ar    1  UNL1        0.0976
     24 C         144.5764  143.7365  165.4716 C.3     1  UNL1        0.2525
     25 O         144.6218  142.7357  164.3552 O.3     1  UNL1       -0.4714
     26 C         138.1881  138.7730  166.2669 C.1     1  UNL1        0.1198
     27 N         137.2912  138.1781  167.3118 N.1     1  UNL1       -0.1893
@<TRIPOS>BOND
     1    24    25    1
     2    25     1    1
     3     1     2   ar
     4     2     3   ar
     5     3     4   ar
     6     4     5   ar
     7     5    18    1
     8    18    19   ar
     9    19    20   ar
    10    20    21   ar
    11    21    22    1
    12    21    23   ar
    13     5     6   ar
    14     6     7   ar
    15     7    26    1
    16    26    27    3
    17     7     8   ar
    18     8    11    1
    19    11    12   ar
    20    12    13   ar
    21    13    14   ar
    22    14    15   ar
    23    15    16    1
    24    15    17   ar
    25     8     9   ar
    26     9    10   ar
    27    10     1   ar
    28     9     4   ar
    29    23    18   ar
    30    17    11   ar
@<TRIPOS>MOLECULE
*****
 27 30 0 0 0
SMALL
GASTEIGER

@<TRIPOS>ATOM
      1 C         142.8007  142.7655  163.9507 C.ar    1  UNL1        0.1387
      2 C         142.5102  142.5290  162.4983 C.ar    1  UNL1        0.0370
      3 C         141.3967  141.6077  162.0965 C.ar    1  UNL1        0.0061
      4 C         140.5738  140.9230  163.1472 C.ar    1  UNL1        0.0348
      5 C         139.4603  140.0017  162.7454 C.ar    1  UNL1        0.1496
      6 N         138.6374  139.3170  163.7960 N.ar    1  UNL1       -0.2176
      7 C         138.9279  139.5535  165.2485 C.ar    1  UNL1        0.1507
      8 C         140.0414  140.4748  165.6503 C.ar    1  UNL1        0.0278
      9 C         140.8643  141.1595  164.5996 C.ar    1  UNL1        0.0080
     10 C         141.9778  142.0808  165.0014 C.ar    1  UNL1        0.0371
     11 C         140.3319  140.7113  167.1027 C.ar    1  UNL1        0.0044
     12 C         139.9652  142.0199  167.7375 C.ar    1  UNL1        0.0002
     13 C         140.2558  142.2564  169.1900 C.ar    1  UNL1        0.0023
     14 C         140.9130  141.1843  170.0077 C.ar    1  UNL1        0.0296
     15 C         141.2798  139.8757  169.3729 C.ar    1  UNL1        0.1401
     16 F         141.9370  138.8036  170.1905 F       1  UNL1       -0.2042
     17 C         140.9892  139.6391  167.9204 C.ar    1  UNL1        0.0297
     18 N         139.1698  139.7652  161.2929 N.ar    1  UNL1       -0.2716
     19 C         138.0462  140.3746  160.5078 C.ar    1  UNL1        0.1836
     20 N         138.1338  139.8638  159.1002 N.ar    1  UNL1       -0.2280
     21 C         139.3115  138.9386  159.0153 C.ar    1  UNL1        0.0786
     22 C         139.7686  138.2034  157.7903 C.3     1  UNL1        0.0538
     23 C         139.9517  138.8777  160.3705 C.ar    1  UNL1        0.0976
     24 C         143.8233  145.1521  164.0448 C.3     1  UNL1        0.2525
     25 O         143.9142  143.6868  164.3525 O.3     1  UNL1       -0.4714
     26 C         138.1050  138.8687  166.2991 C.1     1  UNL1        0.1198
     27 N         137.2820  138.1840  167.3498 N.1     1  UNL1       -0.1893
@<TRIPOS>BOND
     1    24    25    1
     2    25     1    1
     3     1     2   ar
     4     2     3   ar
     5     3     4   ar
     6     4     5   ar
     7     5    18    1
     8    18    19   ar
     9    19    20   ar
    10    20    21   ar
    11    21    22    1
    12    21    23   ar
    13     5     6   ar
    14     6     7   ar
    15     7    26    1
    16    26    27    3
    17     7     8   ar
    18     8    11    1
    19    11    12   ar
    20    12    13   ar
    21    13    14   ar
    22    14    15   ar
    23    15    16    1
    24    15    17   ar
    25     8     9   ar
    26     9    10   ar
    27    10     1   ar
    28     9     4   ar
    29    23    18   ar
    30    17    11   ar
@<TRIPOS>MOLECULE
*****
 27 30 0 0 0
SMALL
GASTEIGER

@<TRIPOS>ATOM
      1 C         139.0304  144.1482  162.8288 C.ar    1  UNL1        0.1387
      2 C         138.4758  143.8483  164.1898 C.ar    1  UNL1        0.0370
      3 C         138.8694  142.5863  164.8988 C.ar    1  UNL1        0.0061
      4 C         139.8176  141.6243  164.2467 C.ar    1  UNL1        0.0348
      5 C         140.2112  140.3623  164.9556 C.ar    1  UNL1        0.1496
      6 N         141.1594  139.4002  164.3035 N.ar    1  UNL1       -0.2176
      7 C         141.7141  139.7001  162.9425 C.ar    1  UNL1        0.1507
      8 C         141.3205  140.9621  162.2335 C.ar    1  UNL1        0.0278
      9 C         140.3723  141.9241  162.8857 C.ar    1  UNL1        0.0080
     10 C         139.9787  143.1861  162.1768 C.ar    1  UNL1        0.0371
     11 C         141.8752  141.2619  160.8725 C.ar    1  UNL1        0.0044
     12 C         141.0703  140.9429  159.6476 C.ar    1  UNL1        0.0002
     13 C         141.6250  141.2429  158.2866 C.ar    1  UNL1        0.0023
     14 C         142.9846  141.8618  158.1505 C.ar    1  UNL1        0.0296
     15 C         143.7894  142.1808  159.3754 C.ar    1  UNL1        0.1401
     16 F         145.1490  142.7997  159.2393 F       1  UNL1       -0.2042
     17 C         143.2348  141.8809  160.7364 C.ar    1  UNL1        0.0297
     18 N         139.6565  140.0624  166.3166 N.ar    1  UNL1       -0.2716
     19 C         138.5069  139.1472  166.6182 C.ar    1  UNL1        0.1836
     20 N         138.2939  139.1442  168.1030 N.ar    1  UNL1       -0.2280
     21 C         139.3119  140.0575  168.7192 C.ar    1  UNL1        0.0786
     22 C         139.4615  140.3517  170.1824 C.3     1  UNL1        0.0538
     23 C         140.1541  140.6250  167.6151 C.ar    1  UNL1        0.0976
     24 C         139.6935  146.3345  161.5919 C.3     1  UNL1        0.2525
     25 O         138.6369  145.4101  162.1199 O.3     1  UNL1       -0.4714
     26 C         142.6623  138.7380  162.2904 C.1     1  UNL1        0.1198
     27 N         143.6106  137.7759  161.6383 N.1     1  UNL1       -0.1893
@<TRIPOS>BOND
     1    24    25    1
     2    25     1    1
     3     1     2   ar
     4     2     3   ar
     5     3     4   ar
     6     4     5   ar
     7     5    18    1
     8    18    19   ar
     9    19    20   ar
    10    20    21   ar
    11    21    22    1
    12    21    23   ar
    13     5     6   ar
    14     6     7   ar
    15     7    26    1
    16    26    27    3
    17     7     8   ar
    18     8    11    1
    19    11    12   ar
    20    12    13   ar
    21    13    14   ar
    22    14    15   ar
    23    15    16    1
    24    15    17   ar
    25     8     9   ar
    26     9    10   ar
    27    10     1   ar
    28     9     4   ar
    29    23    18   ar
    30    17    11   ar
@<TRIPOS>MOLECULE
*****
 27 30 0 0 0
SMALL
GASTEIGER

@<TRIPOS>ATOM
      1 C         139.0904  144.4657  163.3360 C.ar    1  UNL1        0.1387
      2 C         139.3428  144.7878  164.7791 C.ar    1  UNL1        0.0370
      3 C         139.8371  143.7208  165.7103 C.ar    1  UNL1        0.0061
      4 C         140.0790  142.3318  165.1985 C.ar    1  UNL1        0.0348
      5 C         140.5733  141.2648  166.1298 C.ar    1  UNL1        0.1496
      6 N         140.8152  139.8758  165.6180 N.ar    1  UNL1       -0.2176
      7 C         140.5628  139.5537  164.1748 C.ar    1  UNL1        0.1507
      8 C         140.0686  140.6206  163.2435 C.ar    1  UNL1        0.0278
      9 C         139.8266  142.0097  163.7554 C.ar    1  UNL1        0.0080
     10 C         139.3323  143.0767  162.8242 C.ar    1  UNL1        0.0371
     11 C         139.8162  140.2986  161.8004 C.ar    1  UNL1        0.0044
     12 C         138.4440  139.8915  161.3517 C.ar    1  UNL1        0.0002
     13 C         138.1917  139.5694  159.9085 C.ar    1  UNL1        0.0023
     14 C         139.3115  139.6544  158.9142 C.ar    1  UNL1        0.0296
     15 C         140.6837  140.0615  159.3630 C.ar    1  UNL1        0.1401
     16 F         141.8035  140.1465  158.3686 F       1  UNL1       -0.2042
     17 C         140.9360  140.3836  160.8060 C.ar    1  UNL1        0.0297
     18 N         140.8256  141.5869  167.5729 N.ar    1  UNL1       -0.2716
     19 C         139.9137  141.2672  168.7202 C.ar    1  UNL1        0.1836
     20 N         140.5586  141.7679  169.9785 N.ar    1  UNL1       -0.2280
     21 C         141.8693  142.3971  169.6089 C.ar    1  UNL1        0.0786
     22 C         142.8438  143.0274  170.5592 C.3     1  UNL1        0.0538
     23 C         142.0343  142.2852  168.1221 C.ar    1  UNL1        0.0976
     24 C         139.5731  146.3355  161.5979 C.3     1  UNL1        0.2525
     25 O         138.5961  145.5327  162.4047 O.3     1  UNL1       -0.4714
     26 C         140.8048  138.1646  163.6630 C.1     1  UNL1        0.1198
     27 N         141.0467  136.7755  163.1512 N.1     1  UNL1       -0.1893
@<TRIPOS>BOND
     1    24    25    1
     2    25     1    1
     3     1     2   ar
     4     2     3   ar
     5     3     4   ar
     6     4     5   ar
     7     5    18    1
     8    18    19   ar
     9    19    20   ar
    10    20    21   ar
    11    21    22    1
    12    21    23   ar
    13     5     6   ar
    14     6     7   ar
    15     7    26    1
    16    26    27    3
    17     7     8   ar
    18     8    11    1
    19    11    12   ar
    20    12    13   ar
    21    13    14   ar
    22    14    15   ar
    23    15    16    1
    24    15    17   ar
    25     8     9   ar
    26     9    10   ar
    27    10     1   ar
    28     9     4   ar
    29    23    18   ar
    30    17    11   ar
@<TRIPOS>MOLECULE
*****
 27 30 0 0 0
SMALL
GASTEIGER

@<TRIPOS>ATOM
      1 C         138.1903  139.4927  169.1839 C.ar    1  UNL1        0.1387
      2 C         137.5462  138.7903  168.0256 C.ar    1  UNL1        0.0370
      3 C         138.0787  138.9893  166.6376 C.ar    1  UNL1        0.0061
      4 C         139.2555  139.8906  166.4078 C.ar    1  UNL1        0.0348
      5 C         139.7881  140.0896  165.0197 C.ar    1  UNL1        0.1496
      6 N         140.9648  140.9909  164.7899 N.ar    1  UNL1       -0.2176
      7 C         141.6090  141.6933  165.9483 C.ar    1  UNL1        0.1507
      8 C         141.0765  141.4943  167.3364 C.ar    1  UNL1        0.0278
      9 C         139.8996  140.5929  167.5661 C.ar    1  UNL1        0.0080
     10 C         139.3671  140.3940  168.9542 C.ar    1  UNL1        0.0371
     11 C         141.7206  142.1967  168.4947 C.ar    1  UNL1        0.0044
     12 C         140.9310  143.1767  169.3108 C.ar    1  UNL1        0.0002
     13 C         141.5752  143.8790  170.4692 C.ar    1  UNL1        0.0023
     14 C         143.0090  143.6014  170.8113 C.ar    1  UNL1        0.0296
     15 C         143.7986  142.6214  169.9952 C.ar    1  UNL1        0.1401
     16 F         145.2324  142.3438  170.3373 F       1  UNL1       -0.2042
     17 C         143.1545  141.9190  168.8369 C.ar    1  UNL1        0.0297
     18 N         139.1439  139.3872  163.8614 N.ar    1  UNL1       -0.2716
     19 C         139.2363  137.9212  163.5571 C.ar    1  UNL1        0.1836
     20 N         138.4438  137.6555  162.3116 N.ar    1  UNL1       -0.2280
     21 C         137.8615  138.9572  161.8461 C.ar    1  UNL1        0.0786
     22 C         136.9982  139.1540  160.6354 C.3     1  UNL1        0.0538
     23 C         138.2943  140.0274  162.8039 C.ar    1  UNL1        0.0976
     24 C         136.3559  138.5783  170.7805 C.3     1  UNL1        0.2525
     25 O         137.6577  139.2937  170.5720 O.3     1  UNL1       -0.4714
     26 C         142.7858  142.5946  165.7185 C.1     1  UNL1        0.1198
     27 N         143.9626  143.4960  165.4887 N.1     1  UNL1       -0.1893
@<TRIPOS>BOND
     1    24    25    1
     2    25     1    1
     3     1     2   ar
     4     2     3   ar
     5     3     4   ar
     6     4     5   ar
     7     5    18    1
     8    18    19   ar
     9    19    20   ar
    10    20    21   ar
    11    21    22    1
    12    21    23   ar
    13     5     6   ar
    14     6     7   ar
    15     7    26    1
    16    26    27    3
    17     7     8   ar
    18     8    11    1
    19    11    12   ar
    20    12    13   ar
    21    13    14   ar
    22    14    15   ar
    23    15    16    1
    24    15    17   ar
    25     8     9   ar
    26     9    10   ar
    27    10     1   ar
    28     9     4   ar
    29    23    18   ar
    30    17    11   ar
