@<TRIPOS>MOLECULE
*****
 34 36 0 0 0
SMALL
GASTEIGER

@<TRIPOS>ATOM
      1 C         138.4654  141.7045  160.5185 C.ar    1  UNL1        0.0519
      2 C         138.4518  141.5329  159.0285 C.ar    1  UNL1        0.0853
      3 C         138.6703  140.1759  158.4277 C.ar    1  UNL1        0.1045
      4 N         138.9026  138.9906  159.3170 N.ar    1  UNL1       -0.2436
      5 C         138.9163  139.1621  160.8072 C.ar    1  UNL1        0.0825
      6 C         139.1485  137.9767  161.6965 C.ar    1  UNL1        0.0191
      7 C         139.1622  138.1483  163.1865 C.ar    1  UNL1        0.0015
      8 C         138.9436  139.5053  163.7873 C.ar    1  UNL1        0.0001
      9 C         138.7114  140.6907  162.8980 C.ar    1  UNL1        0.0027
     10 C         138.6977  140.5191  161.4079 C.ar    1  UNL1        0.0309
     11 C         138.9573  139.6768  165.2774 C.ar    1  UNL1       -0.0000
     12 C         138.0666  138.8307  166.1380 C.ar    1  UNL1       -0.0003
     13 C         138.0803  139.0023  167.6281 C.ar    1  UNL1       -0.0026
     14 C         138.9848  140.0200  168.2576 C.ar    1  UNL1        0.0013
     15 C         139.8756  140.8661  167.3970 C.ar    1  UNL1       -0.0026
     16 C         139.8618  140.6945  165.9069 C.ar    1  UNL1       -0.0003
     17 C         138.9985  140.1915  169.7477 C.3     1  UNL1        0.1772
     18 S         140.2404  140.6758  170.4354 S.O2    1  UNL1       -0.0040
     19 C         141.4824  141.1602  171.1232 C.3     1  UNL1        0.1764
     20 O         140.8800  139.3355  170.2243 O.2     1  UNL1       -0.1726
     21 O         139.6009  142.0161  170.6465 O.2     1  UNL1       -0.1726
     22 C         138.2195  142.7183  158.1391 C.2     1  UNL1        0.2455
     23 N         137.1148  142.6899  157.1247 N.am    1  UNL1       -0.3252
     24 O         139.0919  143.9320  158.2640 O.2     1  UNL1       -0.2703
     25 H         136.5422  141.8932  157.0427 H       1  UNL1        0.1453
     26 H         136.9624  143.4679  156.5410 H       1  UNL1        0.1453
     27 N         138.2469  143.0614  161.1193 N.pl3   1  UNL1       -0.3325
     28 H         137.3374  143.4340  161.1760 H       1  UNL1        0.1468
     29 C         139.4142  143.8508  161.6337 C.3     1  UNL1        0.0870
     30 C         139.5928  144.0500  163.1096 C.3     1  UNL1        0.0195
     31 C         141.8612  145.2405  163.5419 C.3     1  UNL1        0.0001
     32 C         140.9691  144.0458  163.7058 C.3     1  UNL1        0.0017
     33 C         138.3949  144.2536  163.9893 C.3     1  UNL1        0.0017
     34 C         138.5664  144.8033  165.3744 C.3     1  UNL1        0.0001
@<TRIPOS>BOND
     1    31    32    1
     2    32    30    1
     3    30    33    1
     4    33    34    1
     5    30    29    1
     6    29    27    1
     7    27     1    1
     8     1     2   ar
     9     2    22    1
    10    22    23   am
    11    22    24    2
    12     2     3   ar
    13     3     4   ar
    14     4     5   ar
    15     5     6   ar
    16     6     7   ar
    17     7     8   ar
    18     8    11    1
    19    11    12   ar
    20    12    13   ar
    21    13    14   ar
    22    14    17    1
    23    17    18    1
    24    18    19    1
    25    18    20    2
    26    18    21    2
    27    14    15   ar
    28    15    16   ar
    29     8     9   ar
    30     9    10   ar
    31    10     1   ar
    32    10     5   ar
    33    16    11   ar
    34    27    28    1
    35    23    25    1
    36    23    26    1
@<TRIPOS>MOLECULE
*****
 34 36 0 0 0
SMALL
GASTEIGER

@<TRIPOS>ATOM
      1 C         143.3673  141.7960  160.8843 C.ar    1  UNL1        0.0519
      2 C         143.7992  141.6300  159.4574 C.ar    1  UNL1        0.0853
      3 C         143.9664  140.2559  158.8795 C.ar    1  UNL1        0.1045
      4 N         143.7018  139.0479  159.7284 N.ar    1  UNL1       -0.2436
      5 C         143.2700  139.2139  161.1553 C.ar    1  UNL1        0.0825
      6 C         143.0053  138.0059  162.0042 C.ar    1  UNL1        0.0191
      7 C         142.5735  138.1720  163.4310 C.ar    1  UNL1        0.0015
      8 C         142.4063  139.5460  164.0090 C.ar    1  UNL1        0.0001
      9 C         142.6709  140.7540  163.1601 C.ar    1  UNL1        0.0027
     10 C         143.1027  140.5880  161.7332 C.ar    1  UNL1        0.0309
     11 C         141.9744  139.7120  165.4359 C.ar    1  UNL1       -0.0000
     12 C         140.6354  140.3108  165.7494 C.ar    1  UNL1       -0.0003
     13 C         140.2035  140.4768  167.1763 C.ar    1  UNL1       -0.0026
     14 C         141.1108  140.0440  168.2897 C.ar    1  UNL1        0.0013
     15 C         142.4499  139.4452  167.9761 C.ar    1  UNL1       -0.0026
     16 C         142.8817  139.2793  166.5492 C.ar    1  UNL1       -0.0003
     17 C         140.6790  140.2100  169.7165 C.3     1  UNL1        0.1772
     18 S         140.2026  141.5457  170.2054 S.O2    1  UNL1       -0.0040
     19 C         139.7261  142.8814  170.6942 C.3     1  UNL1        0.1764
     20 O         141.5972  142.0856  170.0891 O.2     1  UNL1       -0.1726
     21 O         138.8080  141.0057  170.3216 O.2     1  UNL1       -0.1726
     22 C         144.0638  142.8380  158.6084 C.2     1  UNL1        0.2455
     23 N         145.2691  142.8784  157.7164 N.am    1  UNL1       -0.3252
     24 O         143.1232  144.0056  158.6515 O.2     1  UNL1       -0.2703
     25 H         145.8865  142.1120  157.6882 H       1  UNL1        0.1453
     26 H         145.4428  143.6712  157.1592 H       1  UNL1        0.1453
     27 N         143.2001  143.1701  161.4622 N.pl3   1  UNL1       -0.3325
     28 H         142.4236  143.7195  161.2087 H       1  UNL1        0.1468
     29 C         144.2161  143.7069  162.4264 C.3     1  UNL1        0.0870
     30 C         143.7786  144.2338  163.7609 C.3     1  UNL1        0.0195
     31 C         143.7840  142.8447  165.9564 C.3     1  UNL1        0.0001
     32 C         144.4745  143.7819  165.0105 C.3     1  UNL1        0.0017
     33 C         142.6450  145.2126  163.8458 C.3     1  UNL1        0.0017
     34 C         141.2373  144.7182  164.0001 C.3     1  UNL1        0.0001
@<TRIPOS>BOND
     1    31    32    1
     2    32    30    1
     3    30    33    1
     4    33    34    1
     5    30    29    1
     6    29    27    1
     7    27     1    1
     8     1     2   ar
     9     2    22    1
    10    22    23   am
    11    22    24    2
    12     2     3   ar
    13     3     4   ar
    14     4     5   ar
    15     5     6   ar
    16     6     7   ar
    17     7     8   ar
    18     8    11    1
    19    11    12   ar
    20    12    13   ar
    21    13    14   ar
    22    14    17    1
    23    17    18    1
    24    18    19    1
    25    18    20    2
    26    18    21    2
    27    14    15   ar
    28    15    16   ar
    29     8     9   ar
    30     9    10   ar
    31    10     1   ar
    32    10     5   ar
    33    16    11   ar
    34    27    28    1
    35    23    25    1
    36    23    26    1
@<TRIPOS>MOLECULE
*****
 34 36 0 0 0
SMALL
GASTEIGER

@<TRIPOS>ATOM
      1 C         141.2085  140.4646  168.2532 C.ar    1  UNL1        0.0519
      2 C         140.5883  140.7296  169.5930 C.ar    1  UNL1        0.0853
      3 C         139.1772  140.2995  169.8645 C.ar    1  UNL1        0.1045
      4 N         138.3862  139.6045  168.7962 N.ar    1  UNL1       -0.2436
      5 C         139.0064  139.3394  167.4564 C.ar    1  UNL1        0.0825
      6 C         138.2154  138.6444  166.3881 C.ar    1  UNL1        0.0191
      7 C         138.8356  138.3794  165.0483 C.ar    1  UNL1        0.0015
      8 C         140.2468  138.8095  164.7768 C.ar    1  UNL1        0.0001
      9 C         141.0377  139.5045  165.8450 C.ar    1  UNL1        0.0027
     10 C         140.4175  139.7695  167.1848 C.ar    1  UNL1        0.0309
     11 C         140.8669  138.5445  163.4369 C.ar    1  UNL1       -0.0000
     12 C         140.0349  138.6425  162.1927 C.ar    1  UNL1       -0.0003
     13 C         140.6550  138.3775  160.8528 C.ar    1  UNL1       -0.0026
     14 C         142.1073  138.0144  160.7572 C.ar    1  UNL1        0.0013
     15 C         142.9394  137.9164  162.0014 C.ar    1  UNL1       -0.0026
     16 C         142.3192  138.1814  163.3412 C.ar    1  UNL1       -0.0003
     17 C         142.7275  137.7494  159.4174 C.3     1  UNL1        0.1772
     18 S         142.7980  138.8437  158.3940 S.O2    1  UNL1       -0.0040
     19 C         142.8684  139.9381  157.3704 C.3     1  UNL1        0.1764
     20 O         143.9422  139.4659  159.1380 O.2     1  UNL1       -0.1726
     21 O         141.6537  138.2216  157.6499 O.2     1  UNL1       -0.1726
     22 C         141.3793  141.4247  170.6613 C.2     1  UNL1        0.2455
     23 N         142.3218  140.6414  171.5262 N.am    1  UNL1       -0.3252
     24 O         141.2276  142.9030  170.8648 O.2     1  UNL1       -0.2703
     25 H         142.4214  139.6711  171.3926 H       1  UNL1        0.1453
     26 H         142.8410  141.0976  172.2273 H       1  UNL1        0.1453
     27 N         142.6196  140.8947  167.9816 N.pl3   1  UNL1       -0.3325
     28 H         143.3652  140.2762  168.1572 H       1  UNL1        0.1468
     29 C         142.8948  142.2673  167.4426 C.3     1  UNL1        0.0870
     30 C         142.9018  142.5038  165.9614 C.3     1  UNL1        0.0195
     31 C         140.3961  143.1837  166.0580 C.3     1  UNL1        0.0001
     32 C         141.6553  142.9721  165.2708 C.3     1  UNL1        0.0017
     33 C         144.1553  142.2720  165.1708 C.3     1  UNL1        0.0017
     34 C         144.3803  140.9539  164.4911 C.3     1  UNL1        0.0001
@<TRIPOS>BOND
     1    31    32    1
     2    32    30    1
     3    30    33    1
     4    33    34    1
     5    30    29    1
     6    29    27    1
     7    27     1    1
     8     1     2   ar
     9     2    22    1
    10    22    23   am
    11    22    24    2
    12     2     3   ar
    13     3     4   ar
    14     4     5   ar
    15     5     6   ar
    16     6     7   ar
    17     7     8   ar
    18     8    11    1
    19    11    12   ar
    20    12    13   ar
    21    13    14   ar
    22    14    17    1
    23    17    18    1
    24    18    19    1
    25    18    20    2
    26    18    21    2
    27    14    15   ar
    28    15    16   ar
    29     8     9   ar
    30     9    10   ar
    31    10     1   ar
    32    10     5   ar
    33    16    11   ar
    34    27    28    1
    35    23    25    1
    36    23    26    1
@<TRIPOS>MOLECULE
*****
 34 36 0 0 0
SMALL
GASTEIGER

@<TRIPOS>ATOM
      1 C         140.7250  141.7175  167.9039 C.ar    1  UNL1        0.0519
      2 C         140.6006  141.8765  169.3902 C.ar    1  UNL1        0.0853
      3 C         139.6559  141.0033  170.1615 C.ar    1  UNL1        0.1045
      4 N         138.8356  139.9709  169.4465 N.ar    1  UNL1       -0.2436
      5 C         138.9599  139.8118  167.9601 C.ar    1  UNL1        0.0825
      6 C         138.1397  138.7794  167.2451 C.ar    1  UNL1        0.0191
      7 C         138.2641  138.6203  165.7588 C.ar    1  UNL1        0.0015
      8 C         139.2088  139.4936  164.9875 C.ar    1  UNL1        0.0001
      9 C         140.0291  140.5259  165.7025 C.ar    1  UNL1        0.0027
     10 C         139.9047  140.6850  167.1888 C.ar    1  UNL1        0.0309
     11 C         139.3332  139.3344  163.5011 C.ar    1  UNL1       -0.0000
     12 C         138.6131  138.2188  162.8034 C.ar    1  UNL1       -0.0003
     13 C         138.7374  138.0597  161.3170 C.ar    1  UNL1       -0.0026
     14 C         139.5819  139.0162  160.5284 C.ar    1  UNL1        0.0013
     15 C         140.3021  140.1319  161.2262 C.ar    1  UNL1       -0.0026
     16 C         140.1777  140.2909  162.7125 C.ar    1  UNL1       -0.0003
     17 C         139.7063  138.8571  159.0421 C.3     1  UNL1        0.1772
     18 S         139.4174  140.0177  158.1368 S.O2    1  UNL1       -0.0040
     19 C         139.1284  141.1783  157.2315 C.3     1  UNL1        0.1764
     20 O         140.8695  140.0916  157.7681 O.2     1  UNL1       -0.1726
     21 O         137.9653  139.9437  158.5055 O.2     1  UNL1       -0.1726
     22 C         141.4209  142.9090  170.1052 C.2     1  UNL1        0.2455
     23 N         142.7505  142.5364  170.6911 N.am    1  UNL1       -0.3252
     24 O         140.9116  144.3139  170.2344 O.2     1  UNL1       -0.2703
     25 H         143.0848  141.6143  170.6063 H       1  UNL1        0.1453
     26 H         143.2889  143.2139  171.1604 H       1  UNL1        0.1453
     27 N         141.6697  142.5907  167.1325 N.pl3   1  UNL1       -0.3325
     28 H         141.3555  143.4452  166.7579 H       1  UNL1        0.1468
     29 C         143.0931  142.1621  166.9321 C.3     1  UNL1        0.0870
     30 C         143.7340  142.2968  165.5826 C.3     1  UNL1        0.0195
     31 C         143.5478  139.7587  165.0598 C.3     1  UNL1        0.0001
     32 C         143.6277  141.1800  164.5870 C.3     1  UNL1        0.0017
     33 C         144.4812  143.5485  165.2288 C.3     1  UNL1        0.0017
     34 C         143.8564  144.5625  164.3170 C.3     1  UNL1        0.0001
@<TRIPOS>BOND
     1    31    32    1
     2    32    30    1
     3    30    33    1
     4    33    34    1
     5    30    29    1
     6    29    27    1
     7    27     1    1
     8     1     2   ar
     9     2    22    1
    10    22    23   am
    11    22    24    2
    12     2     3   ar
    13     3     4   ar
    14     4     5   ar
    15     5     6   ar
    16     6     7   ar
    17     7     8   ar
    18     8    11    1
    19    11    12   ar
    20    12    13   ar
    21    13    14   ar
    22    14    17    1
    23    17    18    1
    24    18    19    1
    25    18    20    2
    26    18    21    2
    27    14    15   ar
    28    15    16   ar
    29     8     9   ar
    30     9    10   ar
    31    10     1   ar
    32    10     5   ar
    33    16    11   ar
    34    27    28    1
    35    23    25    1
    36    23    26    1
@<TRIPOS>MOLECULE
*****
 34 36 0 0 0
SMALL
GASTEIGER

@<TRIPOS>ATOM
      1 C         140.5057  141.5884  168.0476 C.ar    1  UNL1        0.0519
      2 C         140.3744  141.6868  169.5386 C.ar    1  UNL1        0.0853
      3 C         139.4265  140.7826  170.2693 C.ar    1  UNL1        0.1045
      4 N         138.6100  139.7800  169.5090 N.ar    1  UNL1       -0.2436
      5 C         138.7413  139.6816  168.0179 C.ar    1  UNL1        0.0825
      6 C         137.9247  138.6790  167.2577 C.ar    1  UNL1        0.0191
      7 C         138.0561  138.5806  165.7667 C.ar    1  UNL1        0.0015
      8 C         139.0039  139.4849  165.0360 C.ar    1  UNL1        0.0001
      9 C         139.8205  140.4874  165.7963 C.ar    1  UNL1        0.0027
     10 C         139.6892  140.5858  167.2872 C.ar    1  UNL1        0.0309
     11 C         139.1352  139.3865  163.5450 C.ar    1  UNL1       -0.0000
     12 C         138.6469  138.1626  162.8282 C.ar    1  UNL1       -0.0003
     13 C         138.7782  138.0642  161.3372 C.ar    1  UNL1       -0.0026
     14 C         139.3979  139.1897  160.5629 C.ar    1  UNL1        0.0013
     15 C         139.8862  140.4136  161.2798 C.ar    1  UNL1       -0.0026
     16 C         139.7549  140.5119  162.7708 C.ar    1  UNL1       -0.0003
     17 C         139.5292  139.0913  159.0720 C.3     1  UNL1        0.1772
     18 S         139.1639  140.2619  158.2081 S.O2    1  UNL1       -0.0040
     19 C         138.7985  141.4325  157.3442 C.3     1  UNL1        0.1764
     20 O         140.6108  140.4616  157.8668 O.2     1  UNL1       -0.1726
     21 O         137.7170  140.0622  158.5494 O.2     1  UNL1       -0.1726
     22 C         141.1910  142.6894  170.2989 C.2     1  UNL1        0.2455
     23 N         142.2182  142.2246  171.2882 N.am    1  UNL1       -0.3252
     24 O         140.9803  144.1567  170.0699 O.2     1  UNL1       -0.2703
     25 H         142.3565  141.2615  171.4385 H       1  UNL1        0.1453
     26 H         142.7541  142.8826  171.7872 H       1  UNL1        0.1453
     27 N         141.4536  142.4926  167.3169 N.pl3   1  UNL1       -0.3325
     28 H         141.1282  143.3371  166.9293 H       1  UNL1        0.1468
     29 C         142.8973  142.1102  167.1768 C.3     1  UNL1        0.0870
     30 C         143.4037  141.5559  165.8782 C.3     1  UNL1        0.0195
     31 C         144.5368  143.8239  165.3108 C.3     1  UNL1        0.0001
     32 C         144.0775  142.4597  164.8888 C.3     1  UNL1        0.0017
     33 C         143.2361  140.0976  165.5690 C.3     1  UNL1        0.0017
     34 C         143.0683  139.1089  166.6844 C.3     1  UNL1        0.0001
@<TRIPOS>BOND
     1    31    32    1
     2    32    30    1
     3    30    33    1
     4    33    34    1
     5    30    29    1
     6    29    27    1
     7    27     1    1
     8     1     2   ar
     9     2    22    1
    10    22    23   am
    11    22    24    2
    12     2     3   ar
    13     3     4   ar
    14     4     5   ar
    15     5     6   ar
    16     6     7   ar
    17     7     8   ar
    18     8    11    1
    19    11    12   ar
    20    12    13   ar
    21    13    14   ar
    22    14    17    1
    23    17    18    1
    24    18    19    1
    25    18    20    2
    26    18    21    2
    27    14    15   ar
    28    15    16   ar
    29     8     9   ar
    30     9    10   ar
    31    10     1   ar
    32    10     5   ar
    33    16    11   ar
    34    27    28    1
    35    23    25    1
    36    23    26    1
@<TRIPOS>MOLECULE
*****
 34 36 0 0 0
SMALL
GASTEIGER

@<TRIPOS>ATOM
      1 C         142.3467  140.3006  160.8072 C.ar    1  UNL1        0.0519
      2 C         142.5699  140.0610  159.3434 C.ar    1  UNL1        0.0853
      3 C         141.6454  139.1582  158.5816 C.ar    1  UNL1        0.1045
      4 N         140.4978  138.4949  159.2837 N.ar    1  UNL1       -0.2436
      5 C         140.2746  138.7344  160.7476 C.ar    1  UNL1        0.0825
      6 C         139.1269  138.0711  161.4496 C.ar    1  UNL1        0.0191
      7 C         138.9038  138.3106  162.9135 C.ar    1  UNL1        0.0015
      8 C         139.8282  139.2135  163.6752 C.ar    1  UNL1        0.0001
      9 C         140.9759  139.8768  162.9731 C.ar    1  UNL1        0.0027
     10 C         141.1990  139.6372  161.5093 C.ar    1  UNL1        0.0309
     11 C         139.6050  139.4530  165.1391 C.ar    1  UNL1       -0.0000
     12 C         140.5142  140.3757  165.8953 C.ar    1  UNL1       -0.0003
     13 C         140.2910  140.6152  167.3592 C.ar    1  UNL1       -0.0026
     14 C         139.1586  139.9319  168.0668 C.ar    1  UNL1        0.0013
     15 C         138.2494  139.0091  167.3105 C.ar    1  UNL1       -0.0026
     16 C         138.4726  138.7696  165.8467 C.ar    1  UNL1       -0.0003
     17 C         138.9353  140.1714  169.5306 C.3     1  UNL1        0.1772
     18 S         140.0563  140.6822  170.3865 S.O2    1  UNL1       -0.0040
     19 C         141.1772  141.1931  171.2424 C.3     1  UNL1        0.1764
     20 O         140.7446  139.3539  170.2776 O.2     1  UNL1       -0.1726
     21 O         139.3679  142.0104  170.4953 O.2     1  UNL1       -0.1726
     22 C         143.7175  140.7244  158.6412 C.2     1  UNL1        0.2455
     23 N         144.5385  139.9522  157.6514 N.am    1  UNL1       -0.3252
     24 O         144.0442  142.1598  158.9290 O.2     1  UNL1       -0.2703
     25 H         144.3240  139.0101  157.4626 H       1  UNL1        0.1453
     26 H         145.2917  140.3875  157.1906 H       1  UNL1        0.1453
     27 N         143.2712  141.2034  161.5689 N.pl3   1  UNL1       -0.3325
     28 H         143.0482  142.1559  161.6800 H       1  UNL1        0.1468
     29 C         144.5354  140.6550  162.1616 C.3     1  UNL1        0.0870
     30 C         144.7574  140.7170  163.6437 C.3     1  UNL1        0.0195
     31 C         143.8022  138.8369  165.1612 C.3     1  UNL1        0.0001
     32 C         144.9556  139.4526  164.4260 C.3     1  UNL1        0.0017
     33 C         144.7812  142.0436  164.3436 C.3     1  UNL1        0.0017
     34 C         143.5523  142.5451  165.0423 C.3     1  UNL1        0.0001
@<TRIPOS>BOND
     1    31    32    1
     2    32    30    1
     3    30    33    1
     4    33    34    1
     5    30    29    1
     6    29    27    1
     7    27     1    1
     8     1     2   ar
     9     2    22    1
    10    22    23   am
    11    22    24    2
    12     2     3   ar
    13     3     4   ar
    14     4     5   ar
    15     5     6   ar
    16     6     7   ar
    17     7     8   ar
    18     8    11    1
    19    11    12   ar
    20    12    13   ar
    21    13    14   ar
    22    14    17    1
    23    17    18    1
    24    18    19    1
    25    18    20    2
    26    18    21    2
    27    14    15   ar
    28    15    16   ar
    29     8     9   ar
    30     9    10   ar
    31    10     1   ar
    32    10     5   ar
    33    16    11   ar
    34    27    28    1
    35    23    25    1
    36    23    26    1
@<TRIPOS>MOLECULE
*****
 34 36 0 0 0
SMALL
GASTEIGER

@<TRIPOS>ATOM
      1 C         141.1526  141.6246  168.1964 C.ar    1  UNL1        0.0519
      2 C         141.4385  141.5917  169.6685 C.ar    1  UNL1        0.0853
      3 C         140.6314  140.7049  170.5697 C.ar    1  UNL1        0.1045
      4 N         139.5383  139.8510  169.9988 N.ar    1  UNL1       -0.2436
      5 C         139.2523  139.8838  168.5266 C.ar    1  UNL1        0.0825
      6 C         138.1592  139.0299  167.9557 C.ar    1  UNL1        0.0191
      7 C         137.8733  139.0628  166.4836 C.ar    1  UNL1        0.0015
      8 C         138.6805  139.9496  165.5824 C.ar    1  UNL1        0.0001
      9 C         139.7735  140.8035  166.1533 C.ar    1  UNL1        0.0027
     10 C         140.0595  140.7706  167.6254 C.ar    1  UNL1        0.0309
     11 C         138.3945  139.9824  164.1102 C.ar    1  UNL1       -0.0000
     12 C         138.5103  138.7283  163.2956 C.ar    1  UNL1       -0.0003
     13 C         138.2243  138.7611  161.8234 C.ar    1  UNL1       -0.0026
     14 C         137.8226  140.0482  161.1660 C.ar    1  UNL1        0.0013
     15 C         137.7068  141.3023  161.9807 C.ar    1  UNL1       -0.0026
     16 C         137.9927  141.2694  163.4528 C.ar    1  UNL1       -0.0003
     17 C         137.5366  140.0810  159.6939 C.3     1  UNL1        0.1772
     18 S         138.6234  140.4463  158.7268 S.O2    1  UNL1       -0.0040
     19 C         139.7103  140.8116  157.7596 C.3     1  UNL1        0.1764
     20 O         139.0258  139.0042  158.6344 O.2     1  UNL1       -0.1726
     21 O         138.2210  141.8883  158.8191 O.2     1  UNL1       -0.1726
     22 C         142.5316  142.4456  170.2395 C.2     1  UNL1        0.2455
     23 N         143.9354  141.9213  170.3064 N.am    1  UNL1       -0.3252
     24 O         142.2209  143.8238  170.7436 O.2     1  UNL1       -0.2703
     25 H         144.1393  141.0168  169.9755 H       1  UNL1        0.1453
     26 H         144.6529  142.4818  170.6811 H       1  UNL1        0.1453
     27 N         141.9597  142.5113  167.2952 N.pl3   1  UNL1       -0.3325
     28 H         141.6690  143.4366  167.1260 H       1  UNL1        0.1468
     29 C         143.2099  141.9884  166.6519 C.3     1  UNL1        0.0870
     30 C         143.1261  141.2130  165.3706 C.3     1  UNL1        0.0195
     31 C         143.1450  138.8551  166.4613 C.3     1  UNL1        0.0001
     32 C         143.5352  139.7703  165.3388 C.3     1  UNL1        0.0017
     33 C         142.6330  141.8805  164.1210 C.3     1  UNL1        0.0017
     34 C         141.8979  141.0831  163.0848 C.3     1  UNL1        0.0001
@<TRIPOS>BOND
     1    31    32    1
     2    32    30    1
     3    30    33    1
     4    33    34    1
     5    30    29    1
     6    29    27    1
     7    27     1    1
     8     1     2   ar
     9     2    22    1
    10    22    23   am
    11    22    24    2
    12     2     3   ar
    13     3     4   ar
    14     4     5   ar
    15     5     6   ar
    16     6     7   ar
    17     7     8   ar
    18     8    11    1
    19    11    12   ar
    20    12    13   ar
    21    13    14   ar
    22    14    17    1
    23    17    18    1
    24    18    19    1
    25    18    20    2
    26    18    21    2
    27    14    15   ar
    28    15    16   ar
    29     8     9   ar
    30     9    10   ar
    31    10     1   ar
    32    10     5   ar
    33    16    11   ar
    34    27    28    1
    35    23    25    1
    36    23    26    1
@<TRIPOS>MOLECULE
*****
 34 36 0 0 0
SMALL
GASTEIGER

@<TRIPOS>ATOM
      1 C         140.0935  141.8271  167.4672 C.ar    1  UNL1        0.0519
      2 C         140.0084  141.8551  168.9645 C.ar    1  UNL1        0.0853
      3 C         139.3718  140.7139  169.7010 C.ar    1  UNL1        0.1045
      4 N         138.8204  139.5446  168.9402 N.ar    1  UNL1       -0.2436
      5 C         138.9055  139.5166  167.4428 C.ar    1  UNL1        0.0825
      6 C         138.3541  138.3474  166.6820 C.ar    1  UNL1        0.0191
      7 C         138.4393  138.3194  165.1847 C.ar    1  UNL1        0.0015
      8 C         139.0759  139.4606  164.4482 C.ar    1  UNL1        0.0001
      9 C         139.6273  140.6298  165.2090 C.ar    1  UNL1        0.0027
     10 C         139.5421  140.6578  166.7063 C.ar    1  UNL1        0.0309
     11 C         139.1610  139.4325  162.9509 C.ar    1  UNL1       -0.0000
     12 C         139.1495  138.1208  162.2235 C.ar    1  UNL1       -0.0003
     13 C         139.2347  138.0928  160.7261 C.ar    1  UNL1       -0.0026
     14 C         139.3313  139.3765  159.9562 C.ar    1  UNL1        0.0013
     15 C         139.3428  140.6883  160.6837 C.ar    1  UNL1       -0.0026
     16 C         139.2576  140.7163  162.1810 C.ar    1  UNL1       -0.0003
     17 C         139.4164  139.3485  158.4589 C.3     1  UNL1        0.1772
     18 S         140.4336  138.4786  157.7817 S.O2    1  UNL1       -0.0040
     19 C         141.4508  137.6086  157.1045 C.3     1  UNL1        0.1764
     20 O         139.3322  137.6358  157.2101 O.2     1  UNL1       -0.1726
     21 O         141.5349  139.3213  158.3533 O.2     1  UNL1       -0.1726
     22 C         140.5598  143.0243  169.7254 C.2     1  UNL1        0.2455
     23 N         141.6821  142.8230  170.7000 N.am    1  UNL1       -0.3252
     24 O         139.9889  144.3948  169.5116 O.2     1  UNL1       -0.2703
     25 H         142.0567  141.9234  170.8403 H       1  UNL1        0.1453
     26 H         142.0440  143.5903  171.1994 H       1  UNL1        0.1453
     27 N         140.7301  142.9683  166.7307 N.pl3   1  UNL1       -0.3325
     28 H         141.7090  143.0726  166.7359 H       1  UNL1        0.1468
     29 C         139.8751  143.9506  165.9863 C.3     1  UNL1        0.0870
     30 C         140.1407  144.2283  164.5363 C.3     1  UNL1        0.0195
     31 C         137.7946  143.8836  163.4747 C.3     1  UNL1        0.0001
     32 C         139.0319  144.7132  163.6502 C.3     1  UNL1        0.0017
     33 C         141.5153  144.0209  163.9726 C.3     1  UNL1        0.0017
     34 C         142.4076  145.1997  163.7193 C.3     1  UNL1        0.0001
@<TRIPOS>BOND
     1    31    32    1
     2    32    30    1
     3    30    33    1
     4    33    34    1
     5    30    29    1
     6    29    27    1
     7    27     1    1
     8     1     2   ar
     9     2    22    1
    10    22    23   am
    11    22    24    2
    12     2     3   ar
    13     3     4   ar
    14     4     5   ar
    15     5     6   ar
    16     6     7   ar
    17     7     8   ar
    18     8    11    1
    19    11    12   ar
    20    12    13   ar
    21    13    14   ar
    22    14    17    1
    23    17    18    1
    24    18    19    1
    25    18    20    2
    26    18    21    2
    27    14    15   ar
    28    15    16   ar
    29     8     9   ar
    30     9    10   ar
    31    10     1   ar
    32    10     5   ar
    33    16    11   ar
    34    27    28    1
    35    23    25    1
    36    23    26    1
@<TRIPOS>MOLECULE
*****
 34 36 0 0 0
SMALL
GASTEIGER

@<TRIPOS>ATOM
      1 C         141.6426  143.1463  161.0600 C.ar    1  UNL1        0.0519
      2 C         141.4364  143.5942  159.6434 C.ar    1  UNL1        0.0853
      3 C         140.0471  143.7336  159.0955 C.ar    1  UNL1        0.1045
      4 N         138.8638  143.4250  159.9641 N.ar    1  UNL1       -0.2436
      5 C         139.0699  142.9770  161.3808 C.ar    1  UNL1        0.0825
      6 C         137.8867  142.6684  162.2495 C.ar    1  UNL1        0.0191
      7 C         138.0928  142.2205  163.6661 C.ar    1  UNL1        0.0015
      8 C         139.4822  142.0811  164.2140 C.ar    1  UNL1        0.0001
      9 C         140.6654  142.3897  163.3454 C.ar    1  UNL1        0.0027
     10 C         140.4593  142.8377  161.9288 C.ar    1  UNL1        0.0309
     11 C         139.6882  141.6332  165.6307 C.ar    1  UNL1       -0.0000
     12 C         139.1382  140.3148  166.0880 C.ar    1  UNL1       -0.0003
     13 C         139.3443  139.8668  167.5047 C.ar    1  UNL1       -0.0026
     14 C         140.1004  140.7373  168.4641 C.ar    1  UNL1        0.0013
     15 C         140.6505  142.0558  168.0067 C.ar    1  UNL1       -0.0026
     16 C         140.4444  142.5037  166.5901 C.ar    1  UNL1       -0.0003
     17 C         140.3065  140.2895  169.8807 C.3     1  UNL1        0.1772
     18 S         141.6914  140.2273  170.4536 S.O2    1  UNL1       -0.0040
     19 C         143.0763  140.1651  171.0266 C.3     1  UNL1        0.1764
     20 O         141.3020  141.2257  171.5031 O.2     1  UNL1       -0.1726
     21 O         142.0807  139.2288  169.4041 O.2     1  UNL1       -0.1726
     22 C         142.6197  143.9029  158.7746 C.2     1  UNL1        0.2455
     23 N         142.6596  145.1790  157.9873 N.am    1  UNL1       -0.3252
     24 O         143.7631  142.9354  158.6933 O.2     1  UNL1       -0.2703
     25 H         141.9091  145.8140  158.0407 H       1  UNL1        0.1453
     26 H         143.4362  145.3816  157.4171 H       1  UNL1        0.1453
     27 N         143.0319  143.0070  161.6079 N.pl3   1  UNL1       -0.3325
     28 H         143.5870  143.8073  161.7516 H       1  UNL1        0.1468
     29 C         143.5756  141.6482  161.9371 C.3     1  UNL1        0.0870
     30 C         144.1471  141.3784  163.2974 C.3     1  UNL1        0.0195
     31 C         142.9234  139.8866  165.0372 C.3     1  UNL1        0.0001
     32 C         143.9409  140.0418  163.9460 C.3     1  UNL1        0.0017
     33 C         144.9250  142.4454  164.0092 C.3     1  UNL1        0.0017
     34 C         144.2487  143.3120  165.0299 C.3     1  UNL1        0.0001
@<TRIPOS>BOND
     1    31    32    1
     2    32    30    1
     3    30    33    1
     4    33    34    1
     5    30    29    1
     6    29    27    1
     7    27     1    1
     8     1     2   ar
     9     2    22    1
    10    22    23   am
    11    22    24    2
    12     2     3   ar
    13     3     4   ar
    14     4     5   ar
    15     5     6   ar
    16     6     7   ar
    17     7     8   ar
    18     8    11    1
    19    11    12   ar
    20    12    13   ar
    21    13    14   ar
    22    14    17    1
    23    17    18    1
    24    18    19    1
    25    18    20    2
    26    18    21    2
    27    14    15   ar
    28    15    16   ar
    29     8     9   ar
    30     9    10   ar
    31    10     1   ar
    32    10     5   ar
    33    16    11   ar
    34    27    28    1
    35    23    25    1
    36    23    26    1
