@<TRIPOS>MOLECULE
*****
 34 38 0 0 0
SMALL
GASTEIGER

@<TRIPOS>ATOM
      1 C         142.4704  142.1236  167.0371 C.ar    1  UNL1        0.0170
      2 C         143.8155  142.4272  166.4466 C.ar    1  UNL1        0.0011
      3 C         143.9155  143.2188  165.1763 C.ar    1  UNL1       -0.0045
      4 C         142.6705  143.7067  164.4967 C.ar    1  UNL1       -0.0247
      5 C         141.3256  143.4031  165.0872 C.ar    1  UNL1       -0.0246
      6 C         141.2254  142.6115  166.3573 C.ar    1  UNL1       -0.0030
      7 C         139.9701  143.7913  164.5752 C.3     1  UNL1        0.0433
      8 C         139.6249  144.5791  163.3462 C.3     1  UNL1        0.0768
      9 N         140.5499  145.1732  162.3258 N.3     1  UNL1       -0.2720
     10 C         142.0486  145.1263  162.2822 C.3     1  UNL1        0.0768
     11 C         142.9923  144.4736  163.2483 C.3     1  UNL1        0.0433
     12 C         142.6901  138.1520  170.5097 C.3     1  UNL1        0.0540
     13 C         142.4714  139.5065  169.9035 C.ar    1  UNL1        0.0804
     14 C         142.7241  139.8838  168.4738 C.ar    1  UNL1        0.0352
     15 C         142.3704  141.3320  168.3072 C.ar    1  UNL1        0.0791
     16 N         141.8993  141.8497  169.6339 N.ar    1  UNL1       -0.2492
     17 C         141.4453  143.2497  169.9233 C.3     1  UNL1        0.1537
     18 N         141.9617  140.7214  170.6204 N.ar    1  UNL1       -0.1736
     19 C         139.8889  145.9119  161.2001 C.3     1  UNL1        0.0730
     20 C         140.2859  145.6285  159.7815 C.3     1  UNL1        0.0294
     21 C         139.8278  144.3667  159.1123 C.3     1  UNL1        0.0666
     22 S         140.1967  143.0335  159.6923 S.3     1  UNL1       -0.0756
     23 C         139.3127  142.3925  160.7207 C.ar    1  UNL1        0.1933
     24 N         137.8324  142.5915  160.8583 N.ar    1  UNL1       -0.1220
     25 N         137.3586  141.7620  162.0147 N.ar    1  UNL1       -0.1250
     26 C         138.5462  141.0503  162.5919 C.ar    1  UNL1        0.2029
     27 N         139.7539  141.4400  161.7922 N.ar    1  UNL1       -0.2860
     28 C         141.1565  140.9612  162.0234 C.3     1  UNL1        0.1341
     29 C         138.5290  140.1134  163.7632 C.ar    1  UNL1        0.1964
     30 O         138.2442  140.4876  165.1875 O.2     1  UNL1       -0.4283
     31 C         138.3329  139.2432  166.0204 C.ar    1  UNL1        0.2849
     32 N         138.6725  138.0999  165.1108 N.ar    1  UNL1       -0.2085
     33 C         138.7937  138.6377  163.7158 C.ar    1  UNL1        0.1001
     34 C         139.1220  137.8397  162.4887 C.3     1  UNL1        0.0556
@<TRIPOS>BOND
     1    12    13    1
     2    13    14   ar
     3    14    15   ar
     4    15     1    1
     5     1     2   ar
     6     2     3   ar
     7     3     4   ar
     8     4     5   ar
     9     5     6   ar
    10     5     7    1
    11     7     8    1
    12     8     9    1
    13     9    19    1
    14    19    20    1
    15    20    21    1
    16    21    22    1
    17    22    23    1
    18    23    24   ar
    19    24    25   ar
    20    25    26   ar
    21    26    29    1
    22    29    30   ar
    23    30    31   ar
    24    31    32   ar
    25    32    33   ar
    26    33    34    1
    27    26    27   ar
    28    27    28    1
    29     9    10    1
    30    10    11    1
    31    15    16   ar
    32    16    17    1
    33    16    18   ar
    34    18    13   ar
    35     6     1   ar
    36    27    23   ar
    37    11     4    1
    38    33    29   ar
@<TRIPOS>MOLECULE
*****
 34 38 0 0 0
SMALL
GASTEIGER

@<TRIPOS>ATOM
      1 C         141.7665  140.4547  167.6534 C.ar    1  UNL1        0.0170
      2 C         142.7375  139.3851  167.2496 C.ar    1  UNL1        0.0011
      3 C         142.4918  138.5786  166.0089 C.ar    1  UNL1       -0.0045
      4 C         141.2750  138.8418  165.1721 C.ar    1  UNL1       -0.0247
      5 C         140.3040  139.9113  165.5759 C.ar    1  UNL1       -0.0246
      6 C         140.5497  140.7178  166.8165 C.ar    1  UNL1       -0.0030
      7 C         139.0384  140.3329  164.8900 C.3     1  UNL1        0.0433
      8 C         138.4313  139.7890  163.6307 C.3     1  UNL1        0.0768
      9 N         138.9398  138.6893  162.7465 N.3     1  UNL1       -0.2720
     10 C         140.1810  137.8617  162.9031 C.3     1  UNL1        0.0768
     11 C         141.2203  137.9296  163.9826 C.3     1  UNL1        0.0433
     12 C         143.8018  143.9443  171.0535 C.3     1  UNL1        0.0540
     13 C         142.9478  142.8651  170.4569 C.ar    1  UNL1        0.0804
     14 C         143.0586  142.3225  169.0628 C.ar    1  UNL1        0.0352
     15 C         142.0122  141.2612  168.8940 C.ar    1  UNL1        0.0791
     16 N         141.2547  141.1478  170.1838 N.ar    1  UNL1       -0.2492
     17 C         140.1185  140.2080  170.4592 C.3     1  UNL1        0.1537
     18 N         141.8329  142.1391  171.1496 N.ar    1  UNL1       -0.1736
     19 C         138.0955  138.3756  161.5471 C.3     1  UNL1        0.0730
     20 C         137.2528  139.4476  160.9218 C.3     1  UNL1        0.0294
     21 C         137.6731  140.0703  159.6235 C.3     1  UNL1        0.0666
     22 S         139.0794  140.5615  159.4479 S.3     1  UNL1       -0.0756
     23 C         139.5028  141.8606  160.0669 C.ar    1  UNL1        0.1933
     24 N         138.8236  143.1858  159.8868 N.ar    1  UNL1       -0.1220
     25 N         139.5807  144.2069  160.6832 N.ar    1  UNL1       -0.1250
     26 C         140.7279  143.5126  161.3554 C.ar    1  UNL1        0.2029
     27 N         140.6798  142.0625  160.9746 N.ar    1  UNL1       -0.2860
     28 C         141.6401  141.0009  161.4227 C.3     1  UNL1        0.1341
     29 C         141.7448  144.1556  162.2513 C.ar    1  UNL1        0.1964
     30 O         143.1850  144.4046  161.9142 O.2     1  UNL1       -0.4283
     31 C         143.8303  145.0653  163.0962 C.ar    1  UNL1        0.2849
     32 N         142.7889  145.2246  164.1639 N.ar    1  UNL1       -0.2085
     33 C         141.5000  144.6623  163.6417 C.ar    1  UNL1        0.1001
     34 C         140.1953  144.6152  164.3804 C.3     1  UNL1        0.0556
@<TRIPOS>BOND
     1    12    13    1
     2    13    14   ar
     3    14    15   ar
     4    15     1    1
     5     1     2   ar
     6     2     3   ar
     7     3     4   ar
     8     4     5   ar
     9     5     6   ar
    10     5     7    1
    11     7     8    1
    12     8     9    1
    13     9    19    1
    14    19    20    1
    15    20    21    1
    16    21    22    1
    17    22    23    1
    18    23    24   ar
    19    24    25   ar
    20    25    26   ar
    21    26    29    1
    22    29    30   ar
    23    30    31   ar
    24    31    32   ar
    25    32    33   ar
    26    33    34    1
    27    26    27   ar
    28    27    28    1
    29     9    10    1
    30    10    11    1
    31    15    16   ar
    32    16    17    1
    33    16    18   ar
    34    18    13   ar
    35     6     1   ar
    36    27    23   ar
    37    11     4    1
    38    33    29   ar
@<TRIPOS>MOLECULE
*****
 34 38 0 0 0
SMALL
GASTEIGER

@<TRIPOS>ATOM
      1 C         142.3743  141.5469  167.4185 C.ar    1  UNL1        0.0170
      2 C         142.6784  140.1002  167.6725 C.ar    1  UNL1        0.0011
      3 C         143.0652  139.2039  166.5336 C.ar    1  UNL1       -0.0045
      4 C         143.1478  139.7544  165.1407 C.ar    1  UNL1       -0.0247
      5 C         142.8437  141.2010  164.8867 C.ar    1  UNL1       -0.0246
      6 C         142.4569  142.0973  166.0255 C.ar    1  UNL1       -0.0030
      7 C         142.8660  141.9469  163.5854 C.3     1  UNL1        0.0433
      8 C         143.1979  141.4302  162.2168 C.3     1  UNL1        0.0768
      9 N         143.5895  140.0402  161.8116 N.3     1  UNL1       -0.2720
     10 C         143.7459  138.8234  162.6746 C.3     1  UNL1        0.0768
     11 C         143.5494  138.6962  164.1563 C.3     1  UNL1        0.0433
     12 C         139.6116  144.7728  170.5557 C.3     1  UNL1        0.0540
     13 C         140.7177  143.9260  169.9994 C.ar    1  UNL1        0.0804
     14 C         140.6684  143.1376  168.7242 C.ar    1  UNL1        0.0352
     15 C         141.9875  142.4432  168.5573 C.ar    1  UNL1        0.0791
     16 N         142.8520  142.8024  169.7294 N.ar    1  UNL1       -0.2492
     17 C         144.2549  142.3284  169.9683 C.3     1  UNL1        0.1537
     18 N         142.0672  143.7188  170.6206 N.ar    1  UNL1       -0.1736
     19 C         143.8605  139.8405  160.3498 C.3     1  UNL1        0.0730
     20 C         142.7929  139.2776  159.4590 C.3     1  UNL1        0.0294
     21 C         141.3778  139.7579  159.5886 C.3     1  UNL1        0.0666
     22 S         140.2914  138.7966  159.9700 S.3     1  UNL1       -0.0756
     23 C         140.2174  138.2661  161.3712 C.ar    1  UNL1        0.1933
     24 N         141.1117  137.2189  161.9658 N.ar    1  UNL1       -0.1220
     25 N         140.6830  136.9952  163.3858 N.ar    1  UNL1       -0.1250
     26 C         139.5238  137.9042  163.6687 C.ar    1  UNL1        0.2029
     27 N         139.2360  138.6896  162.4235 N.ar    1  UNL1       -0.2860
     28 C         138.1564  139.7180  162.2597 C.3     1  UNL1        0.1341
     29 C         138.7825  138.0092  164.9684 C.ar    1  UNL1        0.1964
     30 O         138.0481  136.8973  165.6569 O.2     1  UNL1       -0.4283
     31 C         137.4571  137.4455  166.9220 C.ar    1  UNL1        0.2849
     32 N         137.8264  138.8963  167.0153 N.ar    1  UNL1       -0.2085
     33 C         138.6455  139.2447  165.8079 C.ar    1  UNL1        0.1001
     34 C         139.2257  140.5922  165.4950 C.3     1  UNL1        0.0556
@<TRIPOS>BOND
     1    12    13    1
     2    13    14   ar
     3    14    15   ar
     4    15     1    1
     5     1     2   ar
     6     2     3   ar
     7     3     4   ar
     8     4     5   ar
     9     5     6   ar
    10     5     7    1
    11     7     8    1
    12     8     9    1
    13     9    19    1
    14    19    20    1
    15    20    21    1
    16    21    22    1
    17    22    23    1
    18    23    24   ar
    19    24    25   ar
    20    25    26   ar
    21    26    29    1
    22    29    30   ar
    23    30    31   ar
    24    31    32   ar
    25    32    33   ar
    26    33    34    1
    27    26    27   ar
    28    27    28    1
    29     9    10    1
    30    10    11    1
    31    15    16   ar
    32    16    17    1
    33    16    18   ar
    34    18    13   ar
    35     6     1   ar
    36    27    23   ar
    37    11     4    1
    38    33    29   ar
@<TRIPOS>MOLECULE
*****
 34 38 0 0 0
SMALL
GASTEIGER

@<TRIPOS>ATOM
      1 C         139.1076  139.4244  165.2647 C.ar    1  UNL1        0.0170
      2 C         139.5806  138.1007  164.7412 C.ar    1  UNL1        0.0011
      3 C         139.6170  137.8483  163.2630 C.ar    1  UNL1       -0.0045
      4 C         139.1804  138.9198  162.3083 C.ar    1  UNL1       -0.0247
      5 C         138.7074  140.2434  162.8318 C.ar    1  UNL1       -0.0246
      6 C         138.6710  140.4958  164.3099 C.ar    1  UNL1       -0.0030
      7 C         138.2318  141.4385  162.0599 C.3     1  UNL1        0.0433
      8 C         138.1118  141.6050  160.5740 C.3     1  UNL1        0.0768
      9 N         138.4378  140.6175  159.4930 N.3     1  UNL1       -0.2720
     10 C         138.9642  139.2197  159.6308 C.3     1  UNL1        0.0768
     11 C         139.2947  138.4641  160.8837 C.3     1  UNL1        0.0433
     12 C         140.1880  141.3607  170.0567 C.3     1  UNL1        0.0540
     13 C         139.5678  140.5667  168.9456 C.ar    1  UNL1        0.0804
     14 C         139.9441  140.6370  167.4951 C.ar    1  UNL1        0.0352
     15 C         139.0712  139.6767  166.7428 C.ar    1  UNL1        0.0791
     16 N         138.1555  139.0130  167.7282 N.ar    1  UNL1       -0.2492
     17 C         137.1155  137.9804  167.4084 C.3     1  UNL1        0.1537
     18 N         138.4624  139.5630  169.0895 N.ar    1  UNL1       -0.1736
     19 C         138.2067  141.0904  158.0884 C.3     1  UNL1        0.0730
     20 C         138.5226  142.5078  157.7126 C.3     1  UNL1        0.0294
     21 C         139.9191  142.8851  157.3155 C.3     1  UNL1        0.0666
     22 S         140.5343  144.1466  157.8445 S.3     1  UNL1       -0.0756
     23 C         140.3963  144.4968  159.2965 C.ar    1  UNL1        0.1933
     24 N         139.7216  145.7173  159.8488 N.ar    1  UNL1       -0.1220
     25 N         139.8170  145.6628  161.3448 N.ar    1  UNL1       -0.1250
     26 C         140.5507  144.4085  161.7170 C.ar    1  UNL1        0.2029
     27 N         140.9087  143.6879  160.4511 N.ar    1  UNL1       -0.2860
     28 C         141.6492  142.3868  160.3564 C.3     1  UNL1        0.1341
     29 C         140.8703  143.9546  163.1105 C.ar    1  UNL1        0.1964
     30 O         142.1785  143.3860  163.5743 O.2     1  UNL1       -0.4283
     31 C         142.0545  143.0695  165.0353 C.ar    1  UNL1        0.2849
     32 N         140.6696  143.4425  165.4745 N.ar    1  UNL1       -0.2085
     33 C         139.9377  143.9895  164.2848 C.ar    1  UNL1        0.1001
     34 C         138.5217  144.4845  164.2719 C.3     1  UNL1        0.0556
@<TRIPOS>BOND
     1    12    13    1
     2    13    14   ar
     3    14    15   ar
     4    15     1    1
     5     1     2   ar
     6     2     3   ar
     7     3     4   ar
     8     4     5   ar
     9     5     6   ar
    10     5     7    1
    11     7     8    1
    12     8     9    1
    13     9    19    1
    14    19    20    1
    15    20    21    1
    16    21    22    1
    17    22    23    1
    18    23    24   ar
    19    24    25   ar
    20    25    26   ar
    21    26    29    1
    22    29    30   ar
    23    30    31   ar
    24    31    32   ar
    25    32    33   ar
    26    33    34    1
    27    26    27   ar
    28    27    28    1
    29     9    10    1
    30    10    11    1
    31    15    16   ar
    32    16    17    1
    33    16    18   ar
    34    18    13   ar
    35     6     1   ar
    36    27    23   ar
    37    11     4    1
    38    33    29   ar
@<TRIPOS>MOLECULE
*****
 34 38 0 0 0
SMALL
GASTEIGER

@<TRIPOS>ATOM
      1 C         140.4006  140.7949  167.5992 C.ar    1  UNL1        0.0170
      2 C         139.2747  139.8493  167.3023 C.ar    1  UNL1        0.0011
      3 C         139.3591  138.9302  166.1199 C.ar    1  UNL1       -0.0045
      4 C         140.5695  138.9568  165.2343 C.ar    1  UNL1       -0.0247
      5 C         141.6954  139.9023  165.5312 C.ar    1  UNL1       -0.0246
      6 C         141.6110  140.8214  166.7136 C.ar    1  UNL1       -0.0030
      7 C         142.9820  140.0890  164.7827 C.3     1  UNL1        0.0433
      8 C         143.4602  139.3761  163.5526 C.3     1  UNL1        0.0768
      9 N         142.7701  138.3007  162.7672 N.3     1  UNL1       -0.2720
     10 C         141.4313  137.6723  163.0177 C.3     1  UNL1        0.0768
     11 C         140.4519  137.9643  164.1157 C.3     1  UNL1        0.0433
     12 C         140.1294  145.1602  170.5573 C.3     1  UNL1        0.0540
     13 C         140.1915  143.7205  170.1414 C.ar    1  UNL1        0.0804
     14 C         140.2752  143.2125  168.7324 C.ar    1  UNL1        0.0352
     15 C         140.3162  141.7139  168.7816 C.ar    1  UNL1        0.0791
     16 N         140.2579  141.2956  170.2210 N.ar    1  UNL1       -0.2492
     17 C         140.2738  139.8849  170.7305 C.3     1  UNL1        0.1537
     18 N         140.1808  142.5357  171.0613 N.ar    1  UNL1       -0.1736
     19 C         143.5177  137.7853  161.5732 C.3     1  UNL1        0.0730
     20 C         144.2170  138.7436  160.6551 C.3     1  UNL1        0.0294
     21 C         143.4180  139.6339  159.7502 C.3     1  UNL1        0.0666
     22 S         143.6546  141.1151  159.7555 S.3     1  UNL1       -0.0756
     23 C         143.2897  141.9286  160.9617 C.ar    1  UNL1        0.1933
     24 N         144.2523  142.5654  161.9198 N.ar    1  UNL1       -0.1220
     25 N         143.4558  143.2786  162.9719 N.ar    1  UNL1       -0.1250
     26 C         142.0008  143.0825  162.6640 C.ar    1  UNL1        0.2029
     27 N         141.8982  142.2482  161.4216 N.ar    1  UNL1       -0.2860
     28 C         140.6272  141.8103  160.7562 C.3     1  UNL1        0.1341
     29 C         140.8505  143.6254  163.4589 C.ar    1  UNL1        0.1964
     30 O         140.3410  143.0780  164.7592 O.2     1  UNL1       -0.4283
     31 C         139.1832  143.9253  165.1971 C.ar    1  UNL1        0.2849
     32 N         138.9772  144.9964  164.1674 N.ar    1  UNL1       -0.2085
     33 C         140.0076  144.8110  163.0931 C.ar    1  UNL1        0.1001
     34 C         140.1671  145.6620  161.8681 C.3     1  UNL1        0.0556
@<TRIPOS>BOND
     1    12    13    1
     2    13    14   ar
     3    14    15   ar
     4    15     1    1
     5     1     2   ar
     6     2     3   ar
     7     3     4   ar
     8     4     5   ar
     9     5     6   ar
    10     5     7    1
    11     7     8    1
    12     8     9    1
    13     9    19    1
    14    19    20    1
    15    20    21    1
    16    21    22    1
    17    22    23    1
    18    23    24   ar
    19    24    25   ar
    20    25    26   ar
    21    26    29    1
    22    29    30   ar
    23    30    31   ar
    24    31    32   ar
    25    32    33   ar
    26    33    34    1
    27    26    27   ar
    28    27    28    1
    29     9    10    1
    30    10    11    1
    31    15    16   ar
    32    16    17    1
    33    16    18   ar
    34    18    13   ar
    35     6     1   ar
    36    27    23   ar
    37    11     4    1
    38    33    29   ar
@<TRIPOS>MOLECULE
*****
 34 38 0 0 0
SMALL
GASTEIGER

@<TRIPOS>ATOM
      1 C         141.0955  142.1582  167.2036 C.ar    1  UNL1        0.0170
      2 C         142.5928  142.0715  167.2293 C.ar    1  UNL1        0.0011
      3 C         143.3873  142.4564  166.0166 C.ar    1  UNL1       -0.0045
      4 C         142.6845  142.9281  164.7782 C.ar    1  UNL1       -0.0247
      5 C         141.1873  143.0147  164.7525 C.ar    1  UNL1       -0.0246
      6 C         140.3928  142.6298  165.9651 C.ar    1  UNL1       -0.0030
      7 C         140.2951  143.4554  163.6300 C.3     1  UNL1        0.0433
      8 C         140.6800  143.9183  162.2560 C.3     1  UNL1        0.0768
      9 N         142.0519  144.0547  161.6653 N.3     1  UNL1       -0.2720
     10 C         143.3779  143.7621  162.3024 C.3     1  UNL1        0.0768
     11 C         143.6595  143.2607  163.6878 C.3     1  UNL1        0.0433
     12 C         138.0160  139.4670  170.5434 C.3     1  UNL1        0.0540
     13 C         138.8856  140.5362  169.9515 C.ar    1  UNL1        0.0804
     14 C         139.5219  140.5038  168.5934 C.ar    1  UNL1        0.0352
     15 C         140.3011  141.7732  168.4162 C.ar    1  UNL1        0.0791
     16 N         140.1464  142.5902  169.6647 N.ar    1  UNL1       -0.2492
     17 C         140.7589  143.9355  169.9197 C.3     1  UNL1        0.1537
     18 N         139.2716  141.8257  170.6135 N.ar    1  UNL1       -0.1736
     19 C         142.1049  144.5493  160.2501 C.3     1  UNL1        0.0730
     20 C         142.4631  143.6071  159.1392 C.3     1  UNL1        0.0294
     21 C         141.7083  142.3215  158.9733 C.3     1  UNL1        0.0666
     22 S         142.3322  141.0253  159.3980 S.3     1  UNL1       -0.0756
     23 C         142.1441  140.5262  160.8000 C.ar    1  UNL1        0.1933
     24 N         143.2370  140.2161  161.7795 N.ar    1  UNL1       -0.1220
     25 N         142.5985  139.7478  163.0535 N.ar    1  UNL1       -0.1250
     26 C         141.1110  139.7685  162.8613 C.ar    1  UNL1        0.2029
     27 N         140.8302  140.2496  161.4685 N.ar    1  UNL1       -0.2860
     28 C         139.4736  140.4235  160.8526 C.3     1  UNL1        0.1341
     29 C         140.0845  139.3769  163.8825 C.ar    1  UNL1        0.1964
     30 O         138.9073  140.2019  164.3107 O.2     1  UNL1       -0.4283
     31 C         138.1503  139.4264  165.3477 C.ar    1  UNL1        0.2849
     32 N         138.8596  138.1220  165.5605 N.ar    1  UNL1       -0.2085
     33 C         140.0551  138.0914  164.6550 C.ar    1  UNL1        0.1001
     34 C         141.0469  136.9718  164.5418 C.3     1  UNL1        0.0556
@<TRIPOS>BOND
     1    12    13    1
     2    13    14   ar
     3    14    15   ar
     4    15     1    1
     5     1     2   ar
     6     2     3   ar
     7     3     4   ar
     8     4     5   ar
     9     5     6   ar
    10     5     7    1
    11     7     8    1
    12     8     9    1
    13     9    19    1
    14    19    20    1
    15    20    21    1
    16    21    22    1
    17    22    23    1
    18    23    24   ar
    19    24    25   ar
    20    25    26   ar
    21    26    29    1
    22    29    30   ar
    23    30    31   ar
    24    31    32   ar
    25    32    33   ar
    26    33    34    1
    27    26    27   ar
    28    27    28    1
    29     9    10    1
    30    10    11    1
    31    15    16   ar
    32    16    17    1
    33    16    18   ar
    34    18    13   ar
    35     6     1   ar
    36    27    23   ar
    37    11     4    1
    38    33    29   ar
@<TRIPOS>MOLECULE
*****
 34 38 0 0 0
SMALL
GASTEIGER

@<TRIPOS>ATOM
      1 C         140.5125  140.5055  166.9735 C.ar    1  UNL1        0.0170
      2 C         139.2136  139.8140  166.6828 C.ar    1  UNL1        0.0011
      3 C         139.0701  138.9763  165.4468 C.ar    1  UNL1       -0.0045
      4 C         140.2256  138.8301  164.5015 C.ar    1  UNL1       -0.0247
      5 C         141.5244  139.5217  164.7923 C.ar    1  UNL1       -0.0246
      6 C         141.6680  140.3594  166.0282 C.ar    1  UNL1       -0.0030
      7 C         142.7912  139.5088  163.9889 C.3     1  UNL1        0.0433
      8 C         143.0718  138.8010  162.6964 C.3     1  UNL1        0.0768
      9 N         142.1550  137.9316  161.8881 N.3     1  UNL1       -0.2720
     10 C         140.7312  137.5550  162.1726 C.3     1  UNL1        0.0768
     11 C         139.8725  137.9549  163.3357 C.3     1  UNL1        0.0433
     12 C         140.4345  144.6083  170.2964 C.3     1  UNL1        0.0540
     13 C         140.6201  143.2291  169.7369 C.ar    1  UNL1        0.0804
     14 C         140.3251  142.8013  168.3297 C.ar    1  UNL1        0.0352
     15 C         140.6559  141.3432  168.2095 C.ar    1  UNL1        0.0791
     16 N         141.1554  140.8698  169.5424 N.ar    1  UNL1       -0.2492
     17 C         141.5991  139.4756  169.8732 C.3     1  UNL1        0.1537
     18 N         141.1332  142.0353  170.4863 N.ar    1  UNL1       -0.1736
     19 C         142.7393  137.3636  160.6288 C.3     1  UNL1        0.0730
     20 C         143.1064  138.2744  159.4949 C.3     1  UNL1        0.0294
     21 C         142.0311  138.8969  158.6545 C.3     1  UNL1        0.0666
     22 S         142.0484  140.3727  158.3869 S.3     1  UNL1       -0.0756
     23 C         142.9011  141.2772  159.2264 C.ar    1  UNL1        0.1933
     24 N         144.2751  141.7675  158.8778 N.ar    1  UNL1       -0.1220
     25 N         144.7528  142.6435  159.9978 N.ar    1  UNL1       -0.1250
     26 C         143.6739  142.6946  161.0386 C.ar    1  UNL1        0.2029
     27 N         142.5295  141.8501  160.5619 N.ar    1  UNL1       -0.2860
     28 C         141.2399  141.6192  161.2925 C.3     1  UNL1        0.1341
     29 C         143.7296  143.4564  162.3296 C.ar    1  UNL1        0.1964
     30 O         142.9832  144.7197  162.6408 O.2     1  UNL1       -0.4283
     31 C         143.3338  145.1327  164.0396 C.ar    1  UNL1        0.2849
     32 N         144.2969  144.1246  164.5929 N.ar    1  UNL1       -0.2085
     33 C         144.5415  143.0885  163.5360 C.ar    1  UNL1        0.1001
     34 C         145.4403  141.8944  163.6634 C.3     1  UNL1        0.0556
@<TRIPOS>BOND
     1    12    13    1
     2    13    14   ar
     3    14    15   ar
     4    15     1    1
     5     1     2   ar
     6     2     3   ar
     7     3     4   ar
     8     4     5   ar
     9     5     6   ar
    10     5     7    1
    11     7     8    1
    12     8     9    1
    13     9    19    1
    14    19    20    1
    15    20    21    1
    16    21    22    1
    17    22    23    1
    18    23    24   ar
    19    24    25   ar
    20    25    26   ar
    21    26    29    1
    22    29    30   ar
    23    30    31   ar
    24    31    32   ar
    25    32    33   ar
    26    33    34    1
    27    26    27   ar
    28    27    28    1
    29     9    10    1
    30    10    11    1
    31    15    16   ar
    32    16    17    1
    33    16    18   ar
    34    18    13   ar
    35     6     1   ar
    36    27    23   ar
    37    11     4    1
    38    33    29   ar
@<TRIPOS>MOLECULE
*****
 34 38 0 0 0
SMALL
GASTEIGER

@<TRIPOS>ATOM
      1 C         140.4352  139.4527  165.7357 C.ar    1  UNL1        0.0170
      2 C         139.6284  138.2127  165.4882 C.ar    1  UNL1        0.0011
      3 C         138.9386  138.0172  164.1705 C.ar    1  UNL1       -0.0045
      4 C         139.0557  139.0619  163.1004 C.ar    1  UNL1       -0.0247
      5 C         139.8626  140.3019  163.3480 C.ar    1  UNL1       -0.0246
      6 C         140.5523  140.4974  164.6655 C.ar    1  UNL1       -0.0030
      7 C         140.1072  141.4584  162.4245 C.3     1  UNL1        0.0433
      8 C         139.6053  141.6604  161.0254 C.3     1  UNL1        0.0768
      9 N         138.7349  140.7559  160.2044 N.3     1  UNL1       -0.2720
     10 C         138.1514  139.4259  160.5795 C.3     1  UNL1        0.0768
     11 C         138.2942  138.6720  161.8684 C.3     1  UNL1        0.0433
     12 C         141.4342  140.8951  170.7158 C.3     1  UNL1        0.0540
     13 C         141.5842  140.3111  169.3424 C.ar    1  UNL1        0.0804
     14 C         140.5558  140.3493  168.2509 C.ar    1  UNL1        0.0352
     15 C         141.1249  139.6481  167.0533 C.ar    1  UNL1        0.0791
     16 N         142.5049  139.1766  167.4045 N.ar    1  UNL1       -0.2492
     17 C         143.4374  138.4270  166.4998 C.3     1  UNL1        0.1537
     18 N         142.7887  139.5863  168.8192 N.ar    1  UNL1       -0.1736
     19 C         138.4043  141.2462  158.8259 C.3     1  UNL1        0.0730
     20 C         139.4394  141.1904  157.7416 C.3     1  UNL1        0.0294
     21 C         140.4000  142.3284  157.5623 C.3     1  UNL1        0.0666
     22 S         141.8549  142.0513  157.3247 S.3     1  UNL1       -0.0756
     23 C         142.6497  141.2899  158.3438 C.ar    1  UNL1        0.1933
     24 N         143.1433  139.8805  158.2035 N.ar    1  UNL1       -0.1220
     25 N         143.8891  139.5237  159.4551 N.ar    1  UNL1       -0.1250
     26 C         143.8563  140.7128  160.3690 C.ar    1  UNL1        0.2029
     27 N         143.0903  141.8044  159.6821 N.ar    1  UNL1       -0.2860
     28 C         142.8135  143.1704  160.2364 C.3     1  UNL1        0.1341
     29 C         144.4800  140.7956  161.7306 C.ar    1  UNL1        0.1964
     30 O         145.4790  141.8194  162.1820 O.2     1  UNL1       -0.4283
     31 C         145.8307  141.5258  163.6103 C.ar    1  UNL1        0.2849
     32 N         145.0490  140.3205  164.0418 N.ar    1  UNL1       -0.2085
     33 C         144.2142  139.8692  162.8800 C.ar    1  UNL1        0.1001
     34 C         143.2780  138.6972  162.8696 C.3     1  UNL1        0.0556
@<TRIPOS>BOND
     1    12    13    1
     2    13    14   ar
     3    14    15   ar
     4    15     1    1
     5     1     2   ar
     6     2     3   ar
     7     3     4   ar
     8     4     5   ar
     9     5     6   ar
    10     5     7    1
    11     7     8    1
    12     8     9    1
    13     9    19    1
    14    19    20    1
    15    20    21    1
    16    21    22    1
    17    22    23    1
    18    23    24   ar
    19    24    25   ar
    20    25    26   ar
    21    26    29    1
    22    29    30   ar
    23    30    31   ar
    24    31    32   ar
    25    32    33   ar
    26    33    34    1
    27    26    27   ar
    28    27    28    1
    29     9    10    1
    30    10    11    1
    31    15    16   ar
    32    16    17    1
    33    16    18   ar
    34    18    13   ar
    35     6     1   ar
    36    27    23   ar
    37    11     4    1
    38    33    29   ar
@<TRIPOS>MOLECULE
*****
 34 38 0 0 0
SMALL
GASTEIGER

@<TRIPOS>ATOM
      1 C         141.8346  139.0355  165.2782 C.ar    1  UNL1        0.0170
      2 C         141.2955  137.7411  164.7455 C.ar    1  UNL1        0.0011
      3 C         141.4562  137.4028  163.2929 C.ar    1  UNL1       -0.0045
      4 C         142.1561  138.3590  162.3732 C.ar    1  UNL1       -0.0247
      5 C         142.6951  139.6534  162.9059 C.ar    1  UNL1       -0.0246
      6 C         142.5344  139.9917  164.3584 C.ar    1  UNL1       -0.0030
      7 C         143.4197  140.7395  162.1672 C.3     1  UNL1        0.0433
      8 C         143.7841  140.7992  160.7133 C.3     1  UNL1        0.0768
      9 N         143.5140  139.7878  159.6392 N.3     1  UNL1       -0.2720
     10 C         142.8128  138.4667  159.7535 C.3     1  UNL1        0.0768
     11 C         142.2084  137.8308  160.9702 C.3     1  UNL1        0.0433
     12 C         142.8762  139.8465  170.3907 C.3     1  UNL1        0.0540
     13 C         142.1526  139.7465  169.0807 C.ar    1  UNL1        0.0804
     14 C         142.7544  139.3335  167.7702 C.ar    1  UNL1        0.0352
     15 C         141.6738  139.3737  166.7307 C.ar    1  UNL1        0.0791
     16 N         140.4041  139.8116  167.3986 N.ar    1  UNL1       -0.2492
     17 C         139.0723  139.9880  166.7314 C.3     1  UNL1        0.1537
     18 N         140.7000  140.0419  168.8510 N.ar    1  UNL1       -0.1736
     19 C         144.0109  140.1445  158.2696 C.3     1  UNL1        0.0730
     20 C         144.7790  141.4155  158.0578 C.3     1  UNL1        0.0294
     21 C         144.0558  142.6756  157.6849 C.3     1  UNL1        0.0666
     22 S         142.5603  142.7389  157.7820 S.3     1  UNL1       -0.0756
     23 C         141.9122  143.6006  158.8247 C.ar    1  UNL1        0.1933
     24 N         142.1016  145.0796  158.9884 N.ar    1  UNL1       -0.1220
     25 N         141.2673  145.5278  160.1516 N.ar    1  UNL1       -0.1250
     26 C         140.5624  144.3259  160.7069 C.ar    1  UNL1        0.2029
     27 N         140.9609  143.1348  159.8868 N.ar    1  UNL1       -0.2860
     28 C         140.4907  141.7253  160.0926 C.3     1  UNL1        0.1341
     29 C         139.6237  144.3166  161.8768 C.ar    1  UNL1        0.1964
     30 O         138.1665  143.9633  161.8352 O.2     1  UNL1       -0.4283
     31 C         137.6195  144.0873  163.2265 C.ar    1  UNL1        0.2849
     32 N         138.7387  144.5173  164.1279 N.ar    1  UNL1       -0.2085
     33 C         139.9774  144.6590  163.2937 C.ar    1  UNL1        0.1001
     34 C         141.3319  145.0708  163.7896 C.3     1  UNL1        0.0556
@<TRIPOS>BOND
     1    12    13    1
     2    13    14   ar
     3    14    15   ar
     4    15     1    1
     5     1     2   ar
     6     2     3   ar
     7     3     4   ar
     8     4     5   ar
     9     5     6   ar
    10     5     7    1
    11     7     8    1
    12     8     9    1
    13     9    19    1
    14    19    20    1
    15    20    21    1
    16    21    22    1
    17    22    23    1
    18    23    24   ar
    19    24    25   ar
    20    25    26   ar
    21    26    29    1
    22    29    30   ar
    23    30    31   ar
    24    31    32   ar
    25    32    33   ar
    26    33    34    1
    27    26    27   ar
    28    27    28    1
    29     9    10    1
    30    10    11    1
    31    15    16   ar
    32    16    17    1
    33    16    18   ar
    34    18    13   ar
    35     6     1   ar
    36    27    23   ar
    37    11     4    1
    38    33    29   ar
