@<TRIPOS>MOLECULE
*****
 32 34 0 0 0
SMALL
GASTEIGER

@<TRIPOS>ATOM
      1 N         140.6565  139.8999  168.4799 N.3     1  UNL1       -0.2727
      2 C         139.3678  139.7405  167.7291 C.3     1  UNL1        0.0725
      3 C         139.3847  139.5587  166.2403 C.3     1  UNL1        0.0231
      4 C         140.6903  139.5364  165.5022 C.3     1  UNL1        0.0397
      5 C         141.9790  139.6958  166.2530 C.3     1  UNL1        0.0231
      6 C         141.9621  139.8776  167.7419 C.3     1  UNL1        0.0725
      7 C         139.7404  139.3463  164.3569 C.ar    1  UNL1       -0.0211
      8 C         138.7910  140.4446  163.9797 C.ar    1  UNL1       -0.0042
      9 C         137.8412  140.2545  162.8345 C.ar    1  UNL1       -0.0003
     10 C         137.8407  138.9661  162.0665 C.ar    1  UNL1       -0.0000
     11 C         138.7901  137.8677  162.4436 C.ar    1  UNL1       -0.0003
     12 C         139.7400  138.0578  163.5889 C.ar    1  UNL1       -0.0042
     13 C         140.6396  140.0817  169.9688 C.3     1  UNL1        0.0721
     14 C         141.3639  141.2382  170.5914 C.3     1  UNL1        0.0173
     15 C         139.5454  142.3302  170.5640 C.3     1  UNL1        0.0000
     16 C         140.9759  142.6437  170.2391 C.3     1  UNL1        0.0013
     17 C         142.4063  142.9572  169.9142 C.3     1  UNL1        0.0000
     18 C         140.5879  144.0492  169.8868 C.3     1  UNL1        0.0000
     19 C         141.6661  139.4480  164.3664 C.3     1  UNL1        0.0949
     20 N         142.4508  140.6587  163.9559 N.am    1  UNL1       -0.2884
     21 C         142.3065  141.2111  162.5688 C.2     1  UNL1        0.3045
     22 O         141.3775  140.5529  161.5923 O.2     1  UNL1       -0.2525
     23 N         143.0912  142.4218  162.1583 N.am    1  UNL1       -0.2683
     24 H         143.0606  141.0907  164.5969 H       1  UNL1        0.1510
     25 H         143.7010  142.8538  162.7993 H       1  UNL1        0.1564
     26 C         142.9469  142.9743  160.7712 C.ar    1  UNL1        0.0524
     27 C         143.8772  142.5241  159.6841 C.ar    1  UNL1        0.0148
     28 C         143.7330  143.0765  158.2970 C.ar    1  UNL1        0.0021
     29 C         142.6583  144.0792  157.9971 C.ar    1  UNL1        0.0115
     30 C         141.7280  144.5293  159.0843 C.ar    1  UNL1        0.0589
     31 CL        140.6534  145.5319  158.7843 Cl      1  UNL1       -0.0822
     32 C         141.8723  143.9769  160.4714 C.ar    1  UNL1        0.0261
@<TRIPOS>BOND
     1    15    16    1
     2    16    17    1
     3    16    18    1
     4    16    14    1
     5    14    13    1
     6    13     1    1
     7     1     2    1
     8     2     3    1
     9     3     4    1
    10     4    19    1
    11    19    20    1
    12    20    21   am
    13    21    22    2
    14    21    23   am
    15    23    26    1
    16    26    27   ar
    17    27    28   ar
    18    28    29   ar
    19    29    30   ar
    20    30    31    1
    21    30    32   ar
    22     4     7    1
    23     7     8   ar
    24     8     9   ar
    25     9    10   ar
    26    10    11   ar
    27    11    12   ar
    28     4     5    1
    29     5     6    1
    30     6     1    1
    31    32    26   ar
    32    12     7   ar
    33    20    24    1
    34    23    25    1
@<TRIPOS>MOLECULE
*****
 32 34 0 0 0
SMALL
GASTEIGER

@<TRIPOS>ATOM
      1 N         141.7227  144.9573  158.9876 N.3     1  UNL1       -0.2727
      2 C         140.6523  145.5748  159.8379 C.3     1  UNL1        0.0725
      3 C         140.1391  144.8459  161.0443 C.3     1  UNL1        0.0231
      4 C         140.6964  143.4996  161.4005 C.3     1  UNL1        0.0397
      5 C         141.7668  142.8822  160.5502 C.3     1  UNL1        0.0231
      6 C         142.2800  143.6111  159.3438 C.3     1  UNL1        0.0725
      7 C         139.6992  143.6700  162.5080 C.ar    1  UNL1       -0.0211
      8 C         138.4817  142.7956  162.5621 C.ar    1  UNL1       -0.0042
      9 C         137.4845  142.9659  163.6696 C.ar    1  UNL1       -0.0003
     10 C         137.7048  144.0109  164.7229 C.ar    1  UNL1       -0.0000
     11 C         138.9223  144.8854  164.6689 C.ar    1  UNL1       -0.0003
     12 C         139.9195  144.7150  163.5613 C.ar    1  UNL1       -0.0042
     13 C         142.2359  145.6862  157.7812 C.3     1  UNL1        0.0721
     14 C         141.7884  145.2750  156.4099 C.3     1  UNL1        0.0173
     15 C         140.0797  146.5184  156.2257 C.3     1  UNL1        0.0000
     16 C         140.3324  145.0427  156.1343 C.3     1  UNL1        0.0013
     17 C         140.5851  143.5670  156.0429 C.3     1  UNL1        0.0000
     18 C         138.8763  144.8105  155.8587 C.3     1  UNL1        0.0000
     19 C         140.9074  142.2125  162.1413 C.3     1  UNL1        0.0949
     20 N         142.1160  142.0379  163.0124 N.am    1  UNL1       -0.2884
     21 C         141.9515  141.6949  164.4634 C.2     1  UNL1        0.3045
     22 O         140.5784  141.5265  165.0432 O.2     1  UNL1       -0.2525
     23 N         143.1601  141.5204  165.3345 N.am    1  UNL1       -0.2683
     24 H         143.0172  142.1485  162.6318 H       1  UNL1        0.1510
     25 H         144.0613  141.6309  164.9539 H       1  UNL1        0.1564
     26 C         142.9956  141.1774  166.7855 C.ar    1  UNL1        0.0524
     27 C         142.7079  139.7630  167.1938 C.ar    1  UNL1        0.0148
     28 C         142.5434  139.4199  168.6447 C.ar    1  UNL1        0.0021
     29 C         142.6666  140.4914  169.6873 C.ar    1  UNL1        0.0115
     30 C         142.9542  141.9058  169.2790 C.ar    1  UNL1        0.0589
     31 CL        143.0774  142.9771  170.3215 Cl      1  UNL1       -0.0822
     32 C         143.1187  142.2488  167.8280 C.ar    1  UNL1        0.0261
@<TRIPOS>BOND
     1    15    16    1
     2    16    17    1
     3    16    18    1
     4    16    14    1
     5    14    13    1
     6    13     1    1
     7     1     2    1
     8     2     3    1
     9     3     4    1
    10     4    19    1
    11    19    20    1
    12    20    21   am
    13    21    22    2
    14    21    23   am
    15    23    26    1
    16    26    27   ar
    17    27    28   ar
    18    28    29   ar
    19    29    30   ar
    20    30    31    1
    21    30    32   ar
    22     4     7    1
    23     7     8   ar
    24     8     9   ar
    25     9    10   ar
    26    10    11   ar
    27    11    12   ar
    28     4     5    1
    29     5     6    1
    30     6     1    1
    31    32    26   ar
    32    12     7   ar
    33    20    24    1
    34    23    25    1
@<TRIPOS>MOLECULE
*****
 32 34 0 0 0
SMALL
GASTEIGER

@<TRIPOS>ATOM
      1 N         142.8734  140.8913  168.8185 N.3     1  UNL1       -0.2727
      2 C         143.1741  142.2282  168.2084 C.3     1  UNL1        0.0725
      3 C         143.2671  142.3685  166.7179 C.3     1  UNL1        0.0231
      4 C         143.0594  141.1721  165.8375 C.3     1  UNL1        0.0397
      5 C         142.7586  139.8352  166.4476 C.3     1  UNL1        0.0231
      6 C         142.6656  139.6948  167.9381 C.3     1  UNL1        0.0725
      7 C         143.3194  142.2198  164.7960 C.ar    1  UNL1       -0.0211
      8 C         142.3988  143.3974  164.6707 C.ar    1  UNL1       -0.0042
      9 C         142.6588  144.4452  163.6293 C.ar    1  UNL1       -0.0003
     10 C         143.8393  144.3152  162.7131 C.ar    1  UNL1       -0.0000
     11 C         144.7599  143.1376  162.8383 C.ar    1  UNL1       -0.0003
     12 C         144.4999  142.0898  163.8798 C.ar    1  UNL1       -0.0042
     13 C         142.7804  140.7509  170.3090 C.3     1  UNL1        0.0721
     14 C         141.5952  141.3058  171.0421 C.3     1  UNL1        0.0173
     15 C         140.3659  139.5900  170.8313 C.3     1  UNL1        0.0000
     16 C         140.2090  141.0508  170.5289 C.3     1  UNL1        0.0013
     17 C         140.0522  142.5116  170.2265 C.3     1  UNL1        0.0000
     18 C         138.8229  140.7957  170.0156 C.3     1  UNL1        0.0000
     19 C         142.9419  140.3394  164.5953 C.3     1  UNL1        0.0949
     20 N         141.5909  139.9078  164.1068 N.am    1  UNL1       -0.2884
     21 C         141.2435  140.0345  162.6531 C.2     1  UNL1        0.3045
     22 O         142.2469  140.5927  161.6880 O.2     1  UNL1       -0.2525
     23 N         139.8925  139.6028  162.1645 N.am    1  UNL1       -0.2683
     24 H         140.9324  139.5414  164.7402 H       1  UNL1        0.1510
     25 H         139.2339  139.2364  162.7979 H       1  UNL1        0.1564
     26 C         139.5450  139.7295  160.7108 C.ar    1  UNL1        0.0524
     27 C         138.7719  140.9197  160.2254 C.ar    1  UNL1        0.0148
     28 C         138.4244  141.0465  158.7718 C.ar    1  UNL1        0.0021
     29 C         138.8501  139.9828  157.8035 C.ar    1  UNL1        0.0115
     30 C         139.6233  138.7926  158.2888 C.ar    1  UNL1        0.0589
     31 CL        140.0489  137.7291  157.3205 Cl      1  UNL1       -0.0822
     32 C         139.9708  138.6659  159.7425 C.ar    1  UNL1        0.0261
@<TRIPOS>BOND
     1    15    16    1
     2    16    17    1
     3    16    18    1
     4    16    14    1
     5    14    13    1
     6    13     1    1
     7     1     2    1
     8     2     3    1
     9     3     4    1
    10     4    19    1
    11    19    20    1
    12    20    21   am
    13    21    22    2
    14    21    23   am
    15    23    26    1
    16    26    27   ar
    17    27    28   ar
    18    28    29   ar
    19    29    30   ar
    20    30    31    1
    21    30    32   ar
    22     4     7    1
    23     7     8   ar
    24     8     9   ar
    25     9    10   ar
    26    10    11   ar
    27    11    12   ar
    28     4     5    1
    29     5     6    1
    30     6     1    1
    31    32    26   ar
    32    12     7   ar
    33    20    24    1
    34    23    25    1
@<TRIPOS>MOLECULE
*****
 32 34 0 0 0
SMALL
GASTEIGER

@<TRIPOS>ATOM
      1 N         142.8766  138.3924  158.9517 N.3     1  UNL1       -0.2727
      2 C         143.6566  139.6544  159.1731 C.3     1  UNL1        0.0725
      3 C         143.8238  140.1991  160.5606 C.3     1  UNL1        0.0231
      4 C         143.2111  139.4818  161.7268 C.3     1  UNL1        0.0397
      5 C         142.4311  138.2198  161.5054 C.3     1  UNL1        0.0231
      6 C         142.2639  137.6751  160.1179 C.3     1  UNL1        0.0725
      7 C         143.8561  140.6336  162.4392 C.ar    1  UNL1       -0.0211
      8 C         144.9737  140.3852  163.4083 C.ar    1  UNL1       -0.0042
      9 C         145.6187  141.5369  164.1206 C.ar    1  UNL1       -0.0003
     10 C         145.1460  142.9371  163.8638 C.ar    1  UNL1       -0.0000
     11 C         144.0284  143.1856  162.8946 C.ar    1  UNL1       -0.0003
     12 C         143.3835  142.0338  162.1823 C.ar    1  UNL1       -0.0042
     13 C         142.7094  137.8477  157.5641 C.3     1  UNL1        0.0721
     14 C         142.8980  136.3822  157.3059 C.3     1  UNL1        0.0173
     15 C         141.3746  136.9853  155.9584 C.3     1  UNL1        0.0000
     16 C         142.0824  135.6955  156.2508 C.3     1  UNL1        0.0013
     17 C         142.7901  134.4057  156.5431 C.3     1  UNL1        0.0000
     18 C         141.2668  135.0088  155.1957 C.3     1  UNL1        0.0000
     19 C         142.8224  139.1645  163.1404 C.3     1  UNL1        0.0949
     20 N         141.5060  139.6390  163.6807 N.am    1  UNL1       -0.2884
     21 C         141.3727  139.9849  165.1343 C.2     1  UNL1        0.3045
     22 O         142.5558  139.8563  166.0473 O.2     1  UNL1       -0.2525
     23 N         140.0563  140.4595  165.6746 N.am    1  UNL1       -0.2683
     24 H         140.7295  139.7234  163.0814 H       1  UNL1        0.1510
     25 H         139.2798  140.5439  165.0752 H       1  UNL1        0.1564
     26 C         139.9230  140.8054  167.1281 C.ar    1  UNL1        0.0524
     27 C         139.2659  139.8417  168.0712 C.ar    1  UNL1        0.0148
     28 C         139.1326  140.1875  169.5246 C.ar    1  UNL1        0.0021
     29 C         139.6564  141.4973  170.0349 C.ar    1  UNL1        0.0115
     30 C         140.3135  142.4610  169.0919 C.ar    1  UNL1        0.0589
     31 CL        140.8372  143.7706  169.6022 Cl      1  UNL1       -0.0822
     32 C         140.4468  142.1151  167.6383 C.ar    1  UNL1        0.0261
@<TRIPOS>BOND
     1    15    16    1
     2    16    17    1
     3    16    18    1
     4    16    14    1
     5    14    13    1
     6    13     1    1
     7     1     2    1
     8     2     3    1
     9     3     4    1
    10     4    19    1
    11    19    20    1
    12    20    21   am
    13    21    22    2
    14    21    23   am
    15    23    26    1
    16    26    27   ar
    17    27    28   ar
    18    28    29   ar
    19    29    30   ar
    20    30    31    1
    21    30    32   ar
    22     4     7    1
    23     7     8   ar
    24     8     9   ar
    25     9    10   ar
    26    10    11   ar
    27    11    12   ar
    28     4     5    1
    29     5     6    1
    30     6     1    1
    31    32    26   ar
    32    12     7   ar
    33    20    24    1
    34    23    25    1
@<TRIPOS>MOLECULE
*****
 32 34 0 0 0
SMALL
GASTEIGER

@<TRIPOS>ATOM
      1 N         141.6853  139.6380  168.3411 N.3     1  UNL1       -0.2727
      2 C         140.2988  140.1223  168.0364 C.3     1  UNL1        0.0725
      3 C         139.8790  140.3487  166.6143 C.3     1  UNL1        0.0231
      4 C         140.8458  140.0909  165.4968 C.3     1  UNL1        0.0397
      5 C         142.2324  139.6066  165.8015 C.3     1  UNL1        0.0231
      6 C         142.6521  139.3802  167.2237 C.3     1  UNL1        0.0725
      7 C         139.6508  140.5397  164.7090 C.ar    1  UNL1       -0.0211
      8 C         139.0223  141.8717  164.9931 C.ar    1  UNL1       -0.0042
      9 C         137.8274  142.3206  164.2054 C.ar    1  UNL1       -0.0003
     10 C         137.2610  141.4374  163.1334 C.ar    1  UNL1       -0.0000
     11 C         137.8894  140.1054  162.8492 C.ar    1  UNL1       -0.0003
     12 C         139.0844  139.6565  163.6370 C.ar    1  UNL1       -0.0042
     13 C         142.1051  139.4116  169.7633 C.3     1  UNL1        0.0721
     14 C         142.8951  140.4606  170.4882 C.3     1  UNL1        0.0173
     15 C         141.2741  141.6081  171.2336 C.3     1  UNL1        0.0000
     16 C         142.4866  141.9012  170.4006 C.3     1  UNL1        0.0013
     17 C         143.6990  142.1944  169.5675 C.3     1  UNL1        0.0000
     18 C         142.0780  143.3419  170.3130 C.3     1  UNL1        0.0000
     19 C         141.3977  139.9889  164.1057 C.3     1  UNL1        0.0949
     20 N         142.3303  141.0443  163.5896 N.am    1  UNL1       -0.2884
     21 C         142.3546  141.3732  162.1263 C.2     1  UNL1        0.3045
     22 O         141.4463  140.6467  161.1792 O.2     1  UNL1       -0.2525
     23 N         143.2872  142.4286  161.6102 N.am    1  UNL1       -0.2683
     24 H         142.9264  141.5212  164.2113 H       1  UNL1        0.1510
     25 H         143.8833  142.9055  162.2319 H       1  UNL1        0.1564
     26 C         143.3115  142.7575  160.1469 C.ar    1  UNL1        0.0524
     27 C         142.2744  143.6728  159.5666 C.ar    1  UNL1        0.0148
     28 C         142.2987  144.0018  158.1033 C.ar    1  UNL1        0.0021
     29 C         143.3601  143.4153  157.2203 C.ar    1  UNL1        0.0115
     30 C         144.3971  142.5000  157.8006 C.ar    1  UNL1        0.0589
     31 CL        145.4584  141.9136  156.9176 Cl      1  UNL1       -0.0822
     32 C         144.3728  142.1711  159.2639 C.ar    1  UNL1        0.0261
@<TRIPOS>BOND
     1    15    16    1
     2    16    17    1
     3    16    18    1
     4    16    14    1
     5    14    13    1
     6    13     1    1
     7     1     2    1
     8     2     3    1
     9     3     4    1
    10     4    19    1
    11    19    20    1
    12    20    21   am
    13    21    22    2
    14    21    23   am
    15    23    26    1
    16    26    27   ar
    17    27    28   ar
    18    28    29   ar
    19    29    30   ar
    20    30    31    1
    21    30    32   ar
    22     4     7    1
    23     7     8   ar
    24     8     9   ar
    25     9    10   ar
    26    10    11   ar
    27    11    12   ar
    28     4     5    1
    29     5     6    1
    30     6     1    1
    31    32    26   ar
    32    12     7   ar
    33    20    24    1
    34    23    25    1
@<TRIPOS>MOLECULE
*****
 32 34 0 0 0
SMALL
GASTEIGER

@<TRIPOS>ATOM
      1 N         141.5539  138.4082  159.5545 N.3     1  UNL1       -0.2727
      2 C         140.1847  138.4527  160.1653 C.3     1  UNL1        0.0725
      3 C         140.0299  138.6233  161.6475 C.3     1  UNL1        0.0231
      4 C         141.2443  138.7493  162.5189 C.3     1  UNL1        0.0397
      5 C         142.6135  138.7047  161.9080 C.3     1  UNL1        0.0231
      6 C         142.7683  138.5341  160.4258 C.3     1  UNL1        0.0725
      7 C         140.1668  138.8498  163.5577 C.ar    1  UNL1       -0.0211
      8 C         139.3274  140.0894  163.6501 C.ar    1  UNL1       -0.0042
      9 C         138.2499  140.1899  164.6888 C.ar    1  UNL1       -0.0003
     10 C         138.0120  139.0507  165.6351 C.ar    1  UNL1       -0.0000
     11 C         138.8514  137.8110  165.5428 C.ar    1  UNL1       -0.0003
     12 C         139.9289  137.7106  164.5040 C.ar    1  UNL1       -0.0042
     13 C         141.7087  138.2376  158.0723 C.3     1  UNL1        0.0721
     14 C         142.6154  137.1725  157.5305 C.3     1  UNL1        0.0173
     15 C         143.3030  135.3128  156.7763 C.3     1  UNL1        0.0000
     16 C         142.0875  136.1633  156.5544 C.3     1  UNL1        0.0013
     17 C         140.8720  137.0138  156.3325 C.3     1  UNL1        0.0000
     18 C         141.5596  135.1541  155.5783 C.3     1  UNL1        0.0000
     19 C         142.0845  138.9102  163.7510 C.3     1  UNL1        0.0949
     20 N         142.3947  140.2816  164.2735 N.am    1  UNL1       -0.2884
     21 C         142.2913  140.5656  165.7428 C.2     1  UNL1        0.3045
     22 O         141.8777  139.4781  166.6895 O.2     1  UNL1       -0.2525
     23 N         142.6014  141.9370  166.2652 N.am    1  UNL1       -0.2683
     24 H         142.6661  140.9954  163.6521 H       1  UNL1        0.1510
     25 H         142.8729  142.6508  165.6438 H       1  UNL1        0.1564
     26 C         142.4980  142.2210  167.7345 C.ar    1  UNL1        0.0524
     27 C         143.7390  142.2890  168.5743 C.ar    1  UNL1        0.0148
     28 C         143.6357  142.5730  170.0435 C.ar    1  UNL1        0.0021
     29 C         142.2912  142.7889  170.6729 C.ar    1  UNL1        0.0115
     30 C         141.0503  142.7208  169.8330 C.ar    1  UNL1        0.0589
     31 CL        139.7059  142.9367  170.4624 Cl      1  UNL1       -0.0822
     32 C         141.1537  142.4369  168.3638 C.ar    1  UNL1        0.0261
@<TRIPOS>BOND
     1    15    16    1
     2    16    17    1
     3    16    18    1
     4    16    14    1
     5    14    13    1
     6    13     1    1
     7     1     2    1
     8     2     3    1
     9     3     4    1
    10     4    19    1
    11    19    20    1
    12    20    21   am
    13    21    22    2
    14    21    23   am
    15    23    26    1
    16    26    27   ar
    17    27    28   ar
    18    28    29   ar
    19    29    30   ar
    20    30    31    1
    21    30    32   ar
    22     4     7    1
    23     7     8   ar
    24     8     9   ar
    25     9    10   ar
    26    10    11   ar
    27    11    12   ar
    28     4     5    1
    29     5     6    1
    30     6     1    1
    31    32    26   ar
    32    12     7   ar
    33    20    24    1
    34    23    25    1
@<TRIPOS>MOLECULE
*****
 32 34 0 0 0
SMALL
GASTEIGER

@<TRIPOS>ATOM
      1 N         142.7087  140.0818  168.1314 N.3     1  UNL1       -0.2727
      2 C         142.6370  141.5525  167.8454 C.3     1  UNL1        0.0725
      3 C         142.8643  142.0574  166.4514 C.3     1  UNL1        0.0231
      4 C         143.1634  141.0917  165.3433 C.3     1  UNL1        0.0397
      5 C         143.2350  139.6210  165.6293 C.3     1  UNL1        0.0231
      6 C         143.0077  139.1160  167.0233 C.3     1  UNL1        0.0725
      7 C         143.1999  142.3828  164.5805 C.ar    1  UNL1       -0.0211
      8 C         142.0600  143.3515  164.6906 C.ar    1  UNL1       -0.0042
      9 C         142.0966  144.6425  163.9278 C.ar    1  UNL1       -0.0003
     10 C         143.2731  144.9648  163.0549 C.ar    1  UNL1       -0.0000
     11 C         144.4131  143.9961  162.9448 C.ar    1  UNL1       -0.0003
     12 C         144.3765  142.7050  163.7076 C.ar    1  UNL1       -0.0042
     13 C         142.4813  139.5768  169.5254 C.3     1  UNL1        0.0721
     14 C         141.1027  139.6000  170.1160 C.3     1  UNL1        0.0173
     15 C         141.4010  141.3775  171.2346 C.3     1  UNL1        0.0000
     16 C         140.3687  140.9005  170.2564 C.3     1  UNL1        0.0013
     17 C         139.3363  140.4235  169.2783 C.3     1  UNL1        0.0000
     18 C         139.6346  142.2011  170.3969 C.3     1  UNL1        0.0000
     19 C         143.4751  140.5743  163.9703 C.3     1  UNL1        0.0949
     20 N         142.4602  139.7555  163.2291 N.am    1  UNL1       -0.2884
     21 C         142.5519  139.6174  161.7382 C.2     1  UNL1        0.3045
     22 O         143.6586  140.2982  160.9887 O.2     1  UNL1       -0.2525
     23 N         141.5370  138.7986  160.9970 N.am    1  UNL1       -0.2683
     24 H         141.7338  139.3087  163.7210 H       1  UNL1        0.1510
     25 H         140.8106  138.3518  161.4889 H       1  UNL1        0.1564
     26 C         141.6287  138.6606  159.5061 C.ar    1  UNL1        0.0524
     27 C         142.6418  137.7356  158.8995 C.ar    1  UNL1        0.0148
     28 C         142.7336  137.5976  157.4088 C.ar    1  UNL1        0.0021
     29 C         141.8122  138.3846  156.5246 C.ar    1  UNL1        0.0115
     30 C         140.7990  139.3095  157.1311 C.ar    1  UNL1        0.0589
     31 CL        139.8777  140.0965  156.2470 Cl      1  UNL1       -0.0822
     32 C         140.7073  139.4476  158.6220 C.ar    1  UNL1        0.0261
@<TRIPOS>BOND
     1    15    16    1
     2    16    17    1
     3    16    18    1
     4    16    14    1
     5    14    13    1
     6    13     1    1
     7     1     2    1
     8     2     3    1
     9     3     4    1
    10     4    19    1
    11    19    20    1
    12    20    21   am
    13    21    22    2
    14    21    23   am
    15    23    26    1
    16    26    27   ar
    17    27    28   ar
    18    28    29   ar
    19    29    30   ar
    20    30    31    1
    21    30    32   ar
    22     4     7    1
    23     7     8   ar
    24     8     9   ar
    25     9    10   ar
    26    10    11   ar
    27    11    12   ar
    28     4     5    1
    29     5     6    1
    30     6     1    1
    31    32    26   ar
    32    12     7   ar
    33    20    24    1
    34    23    25    1
@<TRIPOS>MOLECULE
*****
 32 34 0 0 0
SMALL
GASTEIGER

@<TRIPOS>ATOM
      1 N         141.2772  144.0657  159.5075 N.3     1  UNL1       -0.2727
      2 C         142.1833  142.8737  159.5975 C.3     1  UNL1        0.0725
      3 C         142.7868  142.4881  160.9155 C.3     1  UNL1        0.0231
      4 C         142.4843  143.2946  162.1435 C.3     1  UNL1        0.0397
      5 C         141.5783  144.4866  162.0535 C.3     1  UNL1        0.0231
      6 C         140.9747  144.8721  160.7355 C.3     1  UNL1        0.0725
      7 C         143.3952  142.2575  162.7308 C.ar    1  UNL1       -0.0211
      8 C         144.7344  142.6573  163.2753 C.ar    1  UNL1       -0.0042
      9 C         145.6453  141.6203  163.8626 C.ar    1  UNL1       -0.0003
     10 C         145.2168  140.1835  163.9054 C.ar    1  UNL1       -0.0000
     11 C         143.8776  139.7836  163.3609 C.ar    1  UNL1       -0.0003
     12 C         142.9667  140.8206  162.7736 C.ar    1  UNL1       -0.0042
     13 C         140.6737  144.4513  158.1895 C.3     1  UNL1        0.0721
     14 C         140.6366  145.8922  157.7745 C.3     1  UNL1        0.0173
     15 C         139.3551  147.0687  156.5605 C.3     1  UNL1        0.0000
     16 C         140.5903  146.2525  156.3191 C.3     1  UNL1        0.0013
     17 C         141.8255  145.4364  156.0777 C.3     1  UNL1        0.0000
     18 C         140.5439  146.6129  154.8638 C.3     1  UNL1        0.0000
     19 C         142.4981  143.7409  163.5755 C.3     1  UNL1        0.0949
     20 N         141.3696  143.3646  164.4893 N.am    1  UNL1       -0.2884
     21 C         141.6602  142.8626  165.8726 C.2     1  UNL1        0.3045
     22 O         143.0793  142.7370  166.3421 O.2     1  UNL1       -0.2525
     23 N         140.5317  142.4863  166.7864 N.am    1  UNL1       -0.2683
     24 H         140.4383  143.4471  164.1811 H       1  UNL1        0.1510
     25 H         139.6004  142.5688  166.4782 H       1  UNL1        0.1564
     26 C         140.8224  141.9843  168.1697 C.ar    1  UNL1        0.0524
     27 C         140.4612  142.8198  169.3620 C.ar    1  UNL1        0.0148
     28 C         140.7518  142.3179  170.7453 C.ar    1  UNL1        0.0021
     29 C         141.4035  140.9804  170.9363 C.ar    1  UNL1        0.0115
     30 C         141.7647  140.1449  169.7440 C.ar    1  UNL1        0.0589
     31 CL        142.4164  138.8075  169.9350 Cl      1  UNL1       -0.0822
     32 C         141.4741  140.6469  168.3607 C.ar    1  UNL1        0.0261
@<TRIPOS>BOND
     1    15    16    1
     2    16    17    1
     3    16    18    1
     4    16    14    1
     5    14    13    1
     6    13     1    1
     7     1     2    1
     8     2     3    1
     9     3     4    1
    10     4    19    1
    11    19    20    1
    12    20    21   am
    13    21    22    2
    14    21    23   am
    15    23    26    1
    16    26    27   ar
    17    27    28   ar
    18    28    29   ar
    19    29    30   ar
    20    30    31    1
    21    30    32   ar
    22     4     7    1
    23     7     8   ar
    24     8     9   ar
    25     9    10   ar
    26    10    11   ar
    27    11    12   ar
    28     4     5    1
    29     5     6    1
    30     6     1    1
    31    32    26   ar
    32    12     7   ar
    33    20    24    1
    34    23    25    1
@<TRIPOS>MOLECULE
*****
 32 34 0 0 0
SMALL
GASTEIGER

@<TRIPOS>ATOM
      1 N         142.9747  139.1194  160.1273 N.3     1  UNL1       -0.2727
      2 C         142.3893  140.4998  160.0896 C.3     1  UNL1        0.0725
      3 C         142.6157  141.4421  161.2345 C.3     1  UNL1        0.0231
      4 C         143.4276  141.0040  162.4171 C.3     1  UNL1        0.0397
      5 C         144.0131  139.6235  162.4549 C.3     1  UNL1        0.0231
      6 C         143.7867  138.6812  161.3100 C.3     1  UNL1        0.0725
      7 C         143.0825  142.4008  162.8413 C.ar    1  UNL1       -0.0211
      8 C         144.1721  143.4053  163.0725 C.ar    1  UNL1       -0.0042
      9 C         143.8271  144.8020  163.4966 C.ar    1  UNL1       -0.0003
     10 C         142.3922  145.1943  163.6895 C.ar    1  UNL1       -0.0000
     11 C         141.3024  144.1898  163.4584 C.ar    1  UNL1       -0.0003
     12 C         141.6476  142.7930  163.0342 C.ar    1  UNL1       -0.0042
     13 C         142.7483  138.1771  158.9824 C.3     1  UNL1        0.0721
     14 C         142.2365  138.6981  157.6723 C.3     1  UNL1        0.0173
     15 C         141.8902  136.8281  156.7323 C.3     1  UNL1        0.0000
     16 C         141.0581  138.0440  157.0139 C.3     1  UNL1        0.0013
     17 C         140.2260  139.2599  157.2954 C.3     1  UNL1        0.0000
     18 C         139.8796  137.3900  156.3555 C.3     1  UNL1        0.0000
     19 C         144.1197  141.0509  163.7472 C.3     1  UNL1        0.0949
     20 N         143.7520  140.0680  164.8190 N.am    1  UNL1       -0.2884
     21 C         143.0914  140.5443  166.0787 C.2     1  UNL1        0.3045
     22 O         142.7985  142.0034  166.2664 O.2     1  UNL1       -0.2525
     23 N         142.7237  139.5615  167.1505 N.am    1  UNL1       -0.2683
     24 H         143.9443  139.1104  164.6957 H       1  UNL1        0.1510
     25 H         142.9159  138.6039  167.0272 H       1  UNL1        0.1564
     26 C         142.0630  140.0378  168.4102 C.ar    1  UNL1        0.0524
     27 C         142.8897  140.6300  169.5129 C.ar    1  UNL1        0.0148
     28 C         142.2291  141.1063  170.7725 C.ar    1  UNL1        0.0021
     29 C         140.7418  140.9903  170.9294 C.ar    1  UNL1        0.0115
     30 C         139.9151  140.3982  169.8267 C.ar    1  UNL1        0.0589
     31 CL        138.4279  140.2823  169.9837 Cl      1  UNL1       -0.0822
     32 C         140.5758  139.9219  168.5671 C.ar    1  UNL1        0.0261
@<TRIPOS>BOND
     1    15    16    1
     2    16    17    1
     3    16    18    1
     4    16    14    1
     5    14    13    1
     6    13     1    1
     7     1     2    1
     8     2     3    1
     9     3     4    1
    10     4    19    1
    11    19    20    1
    12    20    21   am
    13    21    22    2
    14    21    23   am
    15    23    26    1
    16    26    27   ar
    17    27    28   ar
    18    28    29   ar
    19    29    30   ar
    20    30    31    1
    21    30    32   ar
    22     4     7    1
    23     7     8   ar
    24     8     9   ar
    25     9    10   ar
    26    10    11   ar
    27    11    12   ar
    28     4     5    1
    29     5     6    1
    30     6     1    1
    31    32    26   ar
    32    12     7   ar
    33    20    24    1
    34    23    25    1
