@<TRIPOS>MOLECULE
*****
 28 31 0 0 0
SMALL
GASTEIGER

@<TRIPOS>ATOM
      1 C         139.5334  145.7528  162.2098 C.3     1  UNL1        0.0307
      2 C         139.7553  144.5656  163.0994 C.ar    1  UNL1       -0.0242
      3 C         138.7136  143.4900  163.1883 C.ar    1  UNL1        0.0160
      4 C         138.9355  142.3028  164.0779 C.ar    1  UNL1        0.0980
      5 N         138.0948  141.0947  164.3678 N.ar    1  UNL1       -0.2310
      6 C         138.8388  140.2365  165.3476 C.ar    1  UNL1        0.1204
      7 N         140.1393  140.9142  165.6632 N.ar    1  UNL1       -0.3107
      8 C         140.1990  142.1912  164.8785 C.ar    1  UNL1        0.0785
      9 C         141.2407  143.2667  164.7895 C.ar    1  UNL1        0.0142
     10 C         141.0188  144.4539  163.8999 C.ar    1  UNL1       -0.0243
     11 C         142.0606  145.5296  163.8110 C.3     1  UNL1        0.0307
     12 C         138.3654  138.9301  165.9126 C.3     1  UNL1        0.0613
     13 C         137.6570  138.8972  167.2343 C.3     1  UNL1        0.0083
     14 C         138.6006  137.6565  165.1558 C.3     1  UNL1        0.0339
     15 C         139.4051  137.6739  163.8899 C.ar    1  UNL1       -0.0187
     16 C         138.7283  137.9222  162.5746 C.ar    1  UNL1        0.0164
     17 C         139.5328  137.9396  161.3086 C.ar    1  UNL1        0.0986
     18 N         141.0141  137.7087  161.3581 N.ar    1  UNL1       -0.2423
     19 C         141.6909  137.4604  162.6736 C.ar    1  UNL1        0.0986
     20 C         140.8864  137.4430  163.9395 C.ar    1  UNL1        0.0164
     21 C         141.1947  140.4044  166.5992 C.3     1  UNL1        0.1339
     22 C         141.6597  141.2578  167.7417 C.ar    1  UNL1        0.0005
     23 C         140.6711  142.0787  168.5155 C.ar    1  UNL1       -0.0015
     24 C         141.1361  142.9322  169.6580 C.ar    1  UNL1        0.0111
     25 C         142.5897  142.9648  170.0268 C.ar    1  UNL1        0.0577
     26 CL        143.0547  143.8182  171.1693 Cl      1  UNL1       -0.0822
     27 C         143.5783  142.1439  169.2530 C.ar    1  UNL1        0.0111
     28 C         143.1133  141.2904  168.1104 C.ar    1  UNL1       -0.0015
@<TRIPOS>BOND
     1     1     2    1
     2     2     3   ar
     3     3     4   ar
     4     4     5   ar
     5     5     6   ar
     6     6    12    1
     7    12    13    1
     8    12    14    1
     9    14    15    1
    10    15    16   ar
    11    16    17   ar
    12    17    18   ar
    13    18    19   ar
    14    19    20   ar
    15     6     7   ar
    16     7    21    1
    17    21    22    1
    18    22    23   ar
    19    23    24   ar
    20    24    25   ar
    21    25    26    1
    22    25    27   ar
    23    27    28   ar
    24     7     8   ar
    25     8     9   ar
    26     9    10   ar
    27    10    11    1
    28    10     2   ar
    29     8     4   ar
    30    20    15   ar
    31    28    22   ar
@<TRIPOS>MOLECULE
*****
 28 31 0 0 0
SMALL
GASTEIGER

@<TRIPOS>ATOM
      1 C         137.7678  144.6250  162.8038 C.3     1  UNL1        0.0307
      2 C         138.9929  144.0678  163.4661 C.ar    1  UNL1       -0.0242
      3 C         140.0058  143.3137  162.6567 C.ar    1  UNL1        0.0160
      4 C         141.2309  142.7565  163.3190 C.ar    1  UNL1        0.0980
      5 N         142.3943  141.9755  162.7834 N.ar    1  UNL1       -0.2310
      6 C         143.3254  141.6898  163.9241 C.ar    1  UNL1        0.1204
      7 N         142.7375  142.2942  165.1648 N.ar    1  UNL1       -0.3107
      8 C         141.4431  142.9534  164.7908 C.ar    1  UNL1        0.0785
      9 C         140.4301  143.7075  165.6002 C.ar    1  UNL1        0.0142
     10 C         139.2051  144.2647  164.9379 C.ar    1  UNL1       -0.0243
     11 C         138.1921  145.0189  165.7474 C.3     1  UNL1        0.0307
     12 C         144.6175  140.9327  163.8392 C.3     1  UNL1        0.0613
     13 C         145.9089  141.6719  163.6496 C.3     1  UNL1        0.0083
     14 C         144.6183  139.4364  163.9439 C.3     1  UNL1        0.0339
     15 C         143.3729  138.6619  163.6291 C.ar    1  UNL1       -0.0187
     16 C         142.9920  138.4021  162.2018 C.ar    1  UNL1        0.0164
     17 C         141.7465  137.6276  161.8869 C.ar    1  UNL1        0.0986
     18 N         140.8821  137.1129  162.9995 N.ar    1  UNL1       -0.2423
     19 C         141.2630  137.3727  164.4269 C.ar    1  UNL1        0.0986
     20 C         142.5084  138.1472  164.7417 C.ar    1  UNL1        0.0164
     21 C         143.3385  142.2475  166.5383 C.3     1  UNL1        0.1339
     22 C         142.5569  141.6678  167.6798 C.ar    1  UNL1        0.0005
     23 C         141.6849  140.4674  167.4586 C.ar    1  UNL1       -0.0015
     24 C         140.9032  139.8876  168.6000 C.ar    1  UNL1        0.0111
     25 C         140.9934  140.5082  169.9626 C.ar    1  UNL1        0.0577
     26 CL        140.2118  139.9285  171.1041 Cl      1  UNL1       -0.0822
     27 C         141.8654  141.7085  170.1839 C.ar    1  UNL1        0.0111
     28 C         142.6471  142.2883  169.0424 C.ar    1  UNL1       -0.0015
@<TRIPOS>BOND
     1     1     2    1
     2     2     3   ar
     3     3     4   ar
     4     4     5   ar
     5     5     6   ar
     6     6    12    1
     7    12    13    1
     8    12    14    1
     9    14    15    1
    10    15    16   ar
    11    16    17   ar
    12    17    18   ar
    13    18    19   ar
    14    19    20   ar
    15     6     7   ar
    16     7    21    1
    17    21    22    1
    18    22    23   ar
    19    23    24   ar
    20    24    25   ar
    21    25    26    1
    22    25    27   ar
    23    27    28   ar
    24     7     8   ar
    25     8     9   ar
    26     9    10   ar
    27    10    11    1
    28    10     2   ar
    29     8     4   ar
    30    20    15   ar
    31    28    22   ar
@<TRIPOS>MOLECULE
*****
 28 31 0 0 0
SMALL
GASTEIGER

@<TRIPOS>ATOM
      1 C         140.1261  140.0918  170.7030 C.3     1  UNL1        0.0307
      2 C         140.2513  140.0670  169.2085 C.ar    1  UNL1       -0.0242
      3 C         139.0440  139.8012  168.3590 C.ar    1  UNL1        0.0160
      4 C         139.1692  139.7764  166.8644 C.ar    1  UNL1        0.0980
      5 N         138.1631  139.5423  165.7767 N.ar    1  UNL1       -0.2310
      6 C         138.8740  139.6387  164.4593 C.ar    1  UNL1        0.1204
      7 N         140.3193  139.9322  164.7329 N.ar    1  UNL1       -0.3107
      8 C         140.5017  140.0173  166.2194 C.ar    1  UNL1        0.0785
      9 C         141.7091  140.2831  167.0688 C.ar    1  UNL1        0.0142
     10 C         141.5839  140.3079  168.5634 C.ar    1  UNL1       -0.0243
     11 C         142.7913  140.5737  169.4129 C.3     1  UNL1        0.0307
     12 C         138.2492  139.4709  163.1060 C.3     1  UNL1        0.0613
     13 C         138.4745  138.2089  162.3271 C.3     1  UNL1        0.0083
     14 C         137.3992  140.5652  162.5315 C.3     1  UNL1        0.0339
     15 C         137.9769  141.9340  162.3256 C.ar    1  UNL1       -0.0187
     16 C         137.6154  143.0491  163.2615 C.ar    1  UNL1        0.0164
     17 C         138.1932  144.4180  163.0557 C.ar    1  UNL1        0.0986
     18 N         139.1324  144.6718  161.9140 N.ar    1  UNL1       -0.2423
     19 C         139.4939  143.5566  160.9782 C.ar    1  UNL1        0.0986
     20 C         138.9162  142.1878  161.1840 C.ar    1  UNL1        0.0164
     21 C         141.3936  140.1096  163.7013 C.3     1  UNL1        0.1339
     22 C         142.0883  141.4316  163.5613 C.ar    1  UNL1        0.0005
     23 C         141.4103  142.6876  164.0227 C.ar    1  UNL1       -0.0015
     24 C         142.1049  144.0097  163.8828 C.ar    1  UNL1        0.0111
     25 C         143.4775  144.0759  163.2815 C.ar    1  UNL1        0.0577
     26 CL        144.1721  145.3979  163.1416 Cl      1  UNL1       -0.0822
     27 C         144.1555  142.8199  162.8201 C.ar    1  UNL1        0.0111
     28 C         143.4609  141.4977  162.9600 C.ar    1  UNL1       -0.0015
@<TRIPOS>BOND
     1     1     2    1
     2     2     3   ar
     3     3     4   ar
     4     4     5   ar
     5     5     6   ar
     6     6    12    1
     7    12    13    1
     8    12    14    1
     9    14    15    1
    10    15    16   ar
    11    16    17   ar
    12    17    18   ar
    13    18    19   ar
    14    19    20   ar
    15     6     7   ar
    16     7    21    1
    17    21    22    1
    18    22    23   ar
    19    23    24   ar
    20    24    25   ar
    21    25    26    1
    22    25    27   ar
    23    27    28   ar
    24     7     8   ar
    25     8     9   ar
    26     9    10   ar
    27    10    11    1
    28    10     2   ar
    29     8     4   ar
    30    20    15   ar
    31    28    22   ar
@<TRIPOS>MOLECULE
*****
 28 31 0 0 0
SMALL
GASTEIGER

@<TRIPOS>ATOM
      1 C         142.8221  142.7908  170.9192 C.3     1  UNL1        0.0307
      2 C         142.2801  142.2369  169.6349 C.ar    1  UNL1       -0.0242
      3 C         142.9714  141.0879  168.9628 C.ar    1  UNL1        0.0160
      4 C         142.4294  140.5340  167.6785 C.ar    1  UNL1        0.0980
      5 N         142.8925  139.4149  166.7934 N.ar    1  UNL1       -0.2310
      6 C         141.9454  139.3186  165.6342 C.ar    1  UNL1        0.1204
      7 N         140.8971  140.3780  165.8028 N.ar    1  UNL1       -0.3107
      8 C         141.1962  141.1292  167.0663 C.ar    1  UNL1        0.0785
      9 C         140.5049  142.2783  167.7384 C.ar    1  UNL1        0.0142
     10 C         141.0469  142.8322  169.0227 C.ar    1  UNL1       -0.0243
     11 C         140.3556  143.9813  169.6948 C.3     1  UNL1        0.0307
     12 C         142.0316  138.3353  164.5046 C.3     1  UNL1        0.0613
     13 C         141.0190  137.2348  164.3894 C.3     1  UNL1        0.0083
     14 C         143.1304  138.4527  163.4903 C.3     1  UNL1        0.0339
     15 C         143.8024  139.7742  163.2621 C.ar    1  UNL1       -0.0187
     16 C         143.2150  140.7567  162.2928 C.ar    1  UNL1        0.0164
     17 C         143.8870  142.0783  162.0645 C.ar    1  UNL1        0.0986
     18 N         145.1463  142.4172  162.8055 N.ar    1  UNL1       -0.2423
     19 C         145.7337  141.4346  163.7749 C.ar    1  UNL1        0.0986
     20 C         145.0617  140.1131  164.0031 C.ar    1  UNL1        0.0164
     21 C         139.7508  140.6403  164.8716 C.3     1  UNL1        0.1339
     22 C         139.6280  141.9705  164.1893 C.ar    1  UNL1        0.0005
     23 C         138.2817  142.4685  163.7537 C.ar    1  UNL1       -0.0015
     24 C         138.1588  143.7987  163.0715 C.ar    1  UNL1        0.0111
     25 C         139.3821  144.6310  162.8248 C.ar    1  UNL1        0.0577
     26 CL        139.2592  145.9611  162.1425 Cl      1  UNL1       -0.0822
     27 C         140.7283  144.1330  163.2603 C.ar    1  UNL1        0.0111
     28 C         140.8513  142.8028  163.9426 C.ar    1  UNL1       -0.0015
@<TRIPOS>BOND
     1     1     2    1
     2     2     3   ar
     3     3     4   ar
     4     4     5   ar
     5     5     6   ar
     6     6    12    1
     7    12    13    1
     8    12    14    1
     9    14    15    1
    10    15    16   ar
    11    16    17   ar
    12    17    18   ar
    13    18    19   ar
    14    19    20   ar
    15     6     7   ar
    16     7    21    1
    17    21    22    1
    18    22    23   ar
    19    23    24   ar
    20    24    25   ar
    21    25    26    1
    22    25    27   ar
    23    27    28   ar
    24     7     8   ar
    25     8     9   ar
    26     9    10   ar
    27    10    11    1
    28    10     2   ar
    29     8     4   ar
    30    20    15   ar
    31    28    22   ar
@<TRIPOS>MOLECULE
*****
 28 31 0 0 0
SMALL
GASTEIGER

@<TRIPOS>ATOM
      1 C         139.9214  142.8922  170.7129 C.3     1  UNL1        0.0307
      2 C         140.4804  142.1624  169.5276 C.ar    1  UNL1       -0.0242
      3 C         141.6438  142.7356  168.7742 C.ar    1  UNL1        0.0160
      4 C         142.2028  142.0058  167.5889 C.ar    1  UNL1        0.0980
      5 N         143.3354  142.3226  166.6578 N.ar    1  UNL1       -0.2310
      6 C         143.4309  141.2153  165.6505 C.ar    1  UNL1        0.1204
      7 N         142.3573  140.2142  165.9590 N.ar    1  UNL1       -0.3107
      8 C         141.5983  140.7028  167.1570 C.ar    1  UNL1        0.0785
      9 C         140.4348  140.1295  167.9105 C.ar    1  UNL1        0.0142
     10 C         139.8759  140.8593  169.0958 C.ar    1  UNL1       -0.0243
     11 C         138.7124  140.2860  169.8492 C.3     1  UNL1        0.0307
     12 C         144.4254  141.1249  164.5311 C.3     1  UNL1        0.0613
     13 C         145.1975  139.8573  164.3144 C.3     1  UNL1        0.0083
     14 C         144.6476  142.3021  163.6285 C.3     1  UNL1        0.0339
     15 C         143.4997  143.1975  163.2672 C.ar    1  UNL1       -0.0187
     16 C         143.3016  144.4937  163.9957 C.ar    1  UNL1        0.0164
     17 C         142.1536  145.3891  163.6344 C.ar    1  UNL1        0.0986
     18 N         141.2039  144.9883  162.5447 N.ar    1  UNL1       -0.2423
     19 C         141.4021  143.6921  161.8163 C.ar    1  UNL1        0.0986
     20 C         142.5500  142.7967  162.1776 C.ar    1  UNL1        0.0164
     21 C         142.0896  138.9469  165.2024 C.3     1  UNL1        0.1339
     22 C         140.9207  138.8651  164.2660 C.ar    1  UNL1        0.0005
     23 C         140.6986  139.9438  163.2476 C.ar    1  UNL1       -0.0015
     24 C         139.5298  139.8620  162.3111 C.ar    1  UNL1        0.0111
     25 C         138.5829  138.7015  162.3930 C.ar    1  UNL1        0.0577
     26 CL        137.4140  138.6197  161.4566 Cl      1  UNL1       -0.0822
     27 C         138.8049  137.6228  163.4114 C.ar    1  UNL1        0.0111
     28 C         139.9739  137.7046  164.3479 C.ar    1  UNL1       -0.0015
@<TRIPOS>BOND
     1     1     2    1
     2     2     3   ar
     3     3     4   ar
     4     4     5   ar
     5     5     6   ar
     6     6    12    1
     7    12    13    1
     8    12    14    1
     9    14    15    1
    10    15    16   ar
    11    16    17   ar
    12    17    18   ar
    13    18    19   ar
    14    19    20   ar
    15     6     7   ar
    16     7    21    1
    17    21    22    1
    18    22    23   ar
    19    23    24   ar
    20    24    25   ar
    21    25    26    1
    22    25    27   ar
    23    27    28   ar
    24     7     8   ar
    25     8     9   ar
    26     9    10   ar
    27    10    11    1
    28    10     2   ar
    29     8     4   ar
    30    20    15   ar
    31    28    22   ar
@<TRIPOS>MOLECULE
*****
 28 31 0 0 0
SMALL
GASTEIGER

@<TRIPOS>ATOM
      1 C         143.7318  138.1383  165.8691 C.3     1  UNL1        0.0307
      2 C         143.1597  139.4672  165.4731 C.ar    1  UNL1       -0.0242
      3 C         141.7259  139.7868  165.7761 C.ar    1  UNL1        0.0160
      4 C         141.1538  141.1157  165.3801 C.ar    1  UNL1        0.0980
      5 N         139.7860  141.7090  165.5450 N.ar    1  UNL1       -0.2310
      6 C         139.8025  143.0850  164.9480 C.ar    1  UNL1        0.1204
      7 N         141.1805  143.3420  164.4140 N.ar    1  UNL1       -0.3107
      8 C         142.0157  142.1250  164.6811 C.ar    1  UNL1        0.0785
      9 C         143.4495  141.8054  164.3781 C.ar    1  UNL1        0.0142
     10 C         144.0216  140.4765  164.7741 C.ar    1  UNL1       -0.0243
     11 C         145.4555  140.1569  164.4711 C.3     1  UNL1        0.0307
     12 C         138.6444  144.0368  164.8942 C.3     1  UNL1        0.0613
     13 C         138.5203  145.1256  165.9184 C.3     1  UNL1        0.0083
     14 C         137.6103  143.8997  163.8163 C.3     1  UNL1        0.0339
     15 C         137.7303  142.8062  162.7966 C.ar    1  UNL1       -0.0187
     16 C         138.2756  143.1094  161.4325 C.ar    1  UNL1        0.0164
     17 C         138.3957  142.0159  160.4127 C.ar    1  UNL1        0.0986
     18 N         137.9704  140.6192  160.7571 N.ar    1  UNL1       -0.2423
     19 C         137.4251  140.3161  162.1212 C.ar    1  UNL1        0.0986
     20 C         137.3051  141.4096  163.1409 C.ar    1  UNL1        0.0164
     21 C         141.6423  144.5960  163.7327 C.3     1  UNL1        0.1339
     22 C         141.2686  144.8541  162.3031 C.ar    1  UNL1        0.0005
     23 C         140.2653  145.9185  161.9706 C.ar    1  UNL1       -0.0015
     24 C         139.8915  146.1766  160.5410 C.ar    1  UNL1        0.0111
     25 C         140.5210  145.3704  159.4439 C.ar    1  UNL1        0.0577
     26 CL        140.1472  145.6284  158.0144 Cl      1  UNL1       -0.0822
     27 C         141.5243  144.3060  159.7763 C.ar    1  UNL1        0.0111
     28 C         141.8981  144.0478  161.2060 C.ar    1  UNL1       -0.0015
@<TRIPOS>BOND
     1     1     2    1
     2     2     3   ar
     3     3     4   ar
     4     4     5   ar
     5     5     6   ar
     6     6    12    1
     7    12    13    1
     8    12    14    1
     9    14    15    1
    10    15    16   ar
    11    16    17   ar
    12    17    18   ar
    13    18    19   ar
    14    19    20   ar
    15     6     7   ar
    16     7    21    1
    17    21    22    1
    18    22    23   ar
    19    23    24   ar
    20    24    25   ar
    21    25    26    1
    22    25    27   ar
    23    27    28   ar
    24     7     8   ar
    25     8     9   ar
    26     9    10   ar
    27    10    11    1
    28    10     2   ar
    29     8     4   ar
    30    20    15   ar
    31    28    22   ar
@<TRIPOS>MOLECULE
*****
 28 31 0 0 0
SMALL
GASTEIGER

@<TRIPOS>ATOM
      1 C         140.7098  145.6074  158.9337 C.3     1  UNL1        0.0307
      2 C         141.0991  144.7757  160.1198 C.ar    1  UNL1       -0.0242
      3 C         142.0062  143.5944  159.9422 C.ar    1  UNL1        0.0160
      4 C         142.3955  142.7626  161.1282 C.ar    1  UNL1        0.0980
      5 N         143.2674  141.5492  161.2605 N.ar    1  UNL1       -0.2310
      6 C         143.2884  141.1489  162.7059 C.ar    1  UNL1        0.1204
      7 N         142.4295  142.1149  163.4669 N.ar    1  UNL1       -0.3107
      8 C         141.8777  143.1122  162.4919 C.ar    1  UNL1        0.0785
      9 C         140.9706  144.2936  162.6695 C.ar    1  UNL1        0.0142
     10 C         140.5813  145.1253  161.4834 C.ar    1  UNL1       -0.0243
     11 C         139.6741  146.3067  161.6611 C.3     1  UNL1        0.0307
     12 C         144.0369  139.9866  163.2881 C.3     1  UNL1        0.0613
     13 C         145.2195  140.2265  164.1790 C.3     1  UNL1        0.0083
     14 C         143.6026  138.5844  162.9794 C.3     1  UNL1        0.0339
     15 C         142.1562  138.2045  163.0952 C.ar    1  UNL1       -0.0187
     16 C         141.6305  137.6363  164.3799 C.ar    1  UNL1        0.0164
     17 C         140.1840  137.2564  164.4957 C.ar    1  UNL1        0.0986
     18 N         139.2632  137.4448  163.3267 N.ar    1  UNL1       -0.2423
     19 C         139.7889  138.0131  162.0418 C.ar    1  UNL1        0.0986
     20 C         141.2354  138.3929  161.9261 C.ar    1  UNL1        0.0164
     21 C         142.1683  142.0883  164.9438 C.3     1  UNL1        0.1339
     22 C         141.0381  141.2678  165.4909 C.ar    1  UNL1        0.0005
     23 C         139.7453  141.1740  164.7360 C.ar    1  UNL1       -0.0015
     24 C         138.6150  140.3535  165.2830 C.ar    1  UNL1        0.0111
     25 C         138.7775  139.6267  166.5850 C.ar    1  UNL1        0.0577
     26 CL        137.6473  138.8062  167.1322 Cl      1  UNL1       -0.0822
     27 C         140.0703  139.7204  167.3400 C.ar    1  UNL1        0.0111
     28 C         141.2006  140.5409  166.7929 C.ar    1  UNL1       -0.0015
@<TRIPOS>BOND
     1     1     2    1
     2     2     3   ar
     3     3     4   ar
     4     4     5   ar
     5     5     6   ar
     6     6    12    1
     7    12    13    1
     8    12    14    1
     9    14    15    1
    10    15    16   ar
    11    16    17   ar
    12    17    18   ar
    13    18    19   ar
    14    19    20   ar
    15     6     7   ar
    16     7    21    1
    17    21    22    1
    18    22    23   ar
    19    23    24   ar
    20    24    25   ar
    21    25    26    1
    22    25    27   ar
    23    27    28   ar
    24     7     8   ar
    25     8     9   ar
    26     9    10   ar
    27    10    11    1
    28    10     2   ar
    29     8     4   ar
    30    20    15   ar
    31    28    22   ar
@<TRIPOS>MOLECULE
*****
 28 31 0 0 0
SMALL
GASTEIGER

@<TRIPOS>ATOM
      1 C         140.4909  142.5178  170.6776 C.3     1  UNL1        0.0307
      2 C         140.9000  141.7285  169.4694 C.ar    1  UNL1       -0.0242
      3 C         139.8671  140.9899  168.6711 C.ar    1  UNL1        0.0160
      4 C         140.2761  140.2006  167.4629 C.ar    1  UNL1        0.0980
      5 N         139.4879  139.3772  166.4877 N.ar    1  UNL1       -0.2310
      6 C         140.4428  138.8177  165.4753 C.ar    1  UNL1        0.1204
      7 N         141.8211  139.2952  165.8247 N.ar    1  UNL1       -0.3107
      8 C         141.7182  140.1499  167.0531 C.ar    1  UNL1        0.0785
      9 C         142.7511  140.8885  167.8515 C.ar    1  UNL1        0.0142
     10 C         142.3420  141.6778  169.0596 C.ar    1  UNL1       -0.0243
     11 C         143.3751  142.4164  169.8580 C.3     1  UNL1        0.0307
     12 C         140.0826  137.9355  164.3168 C.3     1  UNL1        0.0613
     13 C         140.9608  136.7740  163.9571 C.3     1  UNL1        0.0083
     14 C         138.8441  138.2150  163.5180 C.3     1  UNL1        0.0339
     15 C         138.6696  139.5442  162.8452 C.ar    1  UNL1       -0.0187
     16 C         137.7831  140.5858  163.4610 C.ar    1  UNL1        0.0164
     17 C         137.6086  141.9151  162.7882 C.ar    1  UNL1        0.0986
     18 N         138.3205  142.2027  161.4996 N.ar    1  UNL1       -0.2423
     19 C         139.2070  141.1610  160.8838 C.ar    1  UNL1        0.0986
     20 C         139.3815  139.8318  161.5566 C.ar    1  UNL1        0.0164
     21 C         143.0813  138.9744  165.0770 C.3     1  UNL1        0.1339
     22 C         143.5616  139.8890  163.9894 C.ar    1  UNL1        0.0005
     23 C         142.7860  140.0059  162.7108 C.ar    1  UNL1       -0.0015
     24 C         143.2662  140.9205  161.6232 C.ar    1  UNL1        0.0111
     25 C         144.5221  141.7181  161.8141 C.ar    1  UNL1        0.0577
     26 CL        145.0024  142.6326  160.7265 Cl      1  UNL1       -0.0822
     27 C         145.2978  141.6012  163.0926 C.ar    1  UNL1        0.0111
     28 C         144.8175  140.6866  164.1803 C.ar    1  UNL1       -0.0015
@<TRIPOS>BOND
     1     1     2    1
     2     2     3   ar
     3     3     4   ar
     4     4     5   ar
     5     5     6   ar
     6     6    12    1
     7    12    13    1
     8    12    14    1
     9    14    15    1
    10    15    16   ar
    11    16    17   ar
    12    17    18   ar
    13    18    19   ar
    14    19    20   ar
    15     6     7   ar
    16     7    21    1
    17    21    22    1
    18    22    23   ar
    19    23    24   ar
    20    24    25   ar
    21    25    26    1
    22    25    27   ar
    23    27    28   ar
    24     7     8   ar
    25     8     9   ar
    26     9    10   ar
    27    10    11    1
    28    10     2   ar
    29     8     4   ar
    30    20    15   ar
    31    28    22   ar
@<TRIPOS>MOLECULE
*****
 28 31 0 0 0
SMALL
GASTEIGER

@<TRIPOS>ATOM
      1 C         141.6870  141.4631  171.0885 C.3     1  UNL1        0.0307
      2 C         141.6976  141.5403  169.5906 C.ar    1  UNL1       -0.0242
      3 C         142.8464  142.1940  168.8814 C.ar    1  UNL1        0.0160
      4 C         142.8570  142.2712  167.3834 C.ar    1  UNL1        0.0980
      5 N         143.8454  142.8508  166.4152 N.ar    1  UNL1       -0.2310
      6 C         143.3181  142.6324  165.0281 C.ar    1  UNL1        0.1204
      7 N         142.0038  141.9179  165.1390 N.ar    1  UNL1       -0.3107
      8 C         141.7189  141.6947  166.5946 C.ar    1  UNL1        0.0785
      9 C         140.5701  141.0410  167.3038 C.ar    1  UNL1        0.0142
     10 C         140.5595  140.9638  168.8018 C.ar    1  UNL1       -0.0243
     11 C         139.4107  140.3101  169.5109 C.3     1  UNL1        0.0307
     12 C         143.9875  143.0544  163.7537 C.3     1  UNL1        0.0613
     13 C         144.9843  142.1480  163.0943 C.3     1  UNL1        0.0083
     14 C         143.6601  144.3828  163.1388 C.3     1  UNL1        0.0339
     15 C         142.3251  144.6005  162.4904 C.ar    1  UNL1       -0.0187
     16 C         142.1074  144.1872  161.0651 C.ar    1  UNL1        0.0164
     17 C         140.7724  144.4049  160.4166 C.ar    1  UNL1        0.0986
     18 N         139.6552  145.0359  161.1935 N.ar    1  UNL1       -0.2423
     19 C         139.8730  145.4493  162.6190 C.ar    1  UNL1        0.0986
     20 C         141.2079  145.2316  163.2674 C.ar    1  UNL1        0.0164
     21 C         141.1282  141.5000  163.9950 C.3     1  UNL1        0.1339
     22 C         141.6060  140.4596  163.0259 C.ar    1  UNL1        0.0005
     23 C         141.5175  140.7123  161.5500 C.ar    1  UNL1       -0.0015
     24 C         141.9952  139.6719  160.5808 C.ar    1  UNL1        0.0111
     25 C         142.5615  138.3787  161.0876 C.ar    1  UNL1        0.0577
     26 CL        143.0393  137.3382  160.1185 Cl      1  UNL1       -0.0822
     27 C         142.6501  138.1258  162.5634 C.ar    1  UNL1        0.0111
     28 C         142.1723  139.1663  163.5327 C.ar    1  UNL1       -0.0015
@<TRIPOS>BOND
     1     1     2    1
     2     2     3   ar
     3     3     4   ar
     4     4     5   ar
     5     5     6   ar
     6     6    12    1
     7    12    13    1
     8    12    14    1
     9    14    15    1
    10    15    16   ar
    11    16    17   ar
    12    17    18   ar
    13    18    19   ar
    14    19    20   ar
    15     6     7   ar
    16     7    21    1
    17    21    22    1
    18    22    23   ar
    19    23    24   ar
    20    24    25   ar
    21    25    26    1
    22    25    27   ar
    23    27    28   ar
    24     7     8   ar
    25     8     9   ar
    26     9    10   ar
    27    10    11    1
    28    10     2   ar
    29     8     4   ar
    30    20    15   ar
    31    28    22   ar
