@<TRIPOS>MOLECULE
*****
 33 37 0 0 0
SMALL
GASTEIGER

@<TRIPOS>ATOM
      1 C         141.3854  138.9569  163.2182 C.ar    1  UNL1        0.1666
      2 N         142.2761  139.7651  164.1146 N.ar    1  UNL1       -0.2120
      3 C         141.8358  140.0945  165.5102 C.ar    1  UNL1        0.1318
      4 C         140.5048  139.6157  166.0094 C.ar    1  UNL1        0.0491
      5 C         140.0645  139.9450  167.4050 C.ar    1  UNL1        0.0041
      6 C         138.7336  139.4662  167.9042 C.ar    1  UNL1        0.0002
      7 C         137.8429  138.6580  167.0078 C.ar    1  UNL1        0.0015
      8 C         138.2832  138.3287  165.6122 C.ar    1  UNL1        0.0192
      9 C         139.6141  138.8075  165.1130 C.ar    1  UNL1        0.0856
     10 N         140.0544  138.4781  163.7174 N.ar    1  UNL1       -0.2264
     11 C         142.7063  137.9688  159.0315 C.ar    1  UNL1        0.3201
     12 N         141.3276  138.5069  159.2756 N.ar    1  UNL1       -0.1926
     13 C         140.8873  138.8363  160.6712 C.ar    1  UNL1        0.1082
     14 C         141.8257  138.6275  161.8226 C.ar    1  UNL1        0.0743
     15 C         143.2044  138.0894  161.5785 C.ar    1  UNL1        0.1082
     16 N         143.6447  137.7600  160.1829 N.ar    1  UNL1       -0.1926
     17 C         142.8515  136.2881  157.0556 C.3     1  UNL1        0.2559
     18 O         143.1466  137.6394  157.6359 O.3     1  UNL1       -0.4426
     19 C         140.9552  140.7533  168.3014 C.ar    1  UNL1        0.0001
     20 C         142.0449  140.0793  169.0813 C.ar    1  UNL1        0.0000
     21 C         142.9357  140.8876  169.9777 C.ar    1  UNL1        0.0000
     22 C         142.7366  142.3698  170.0940 C.ar    1  UNL1        0.0000
     23 C         141.6469  143.0437  169.3140 C.ar    1  UNL1        0.0000
     24 C         140.7562  142.2355  168.4177 C.ar    1  UNL1        0.0000
     25 N         142.7265  140.9027  166.4066 N.pl3   1  UNL1       -0.3131
     26 H         142.7294  140.7368  167.3770 H       1  UNL1        0.1485
     27 C         143.6128  141.9637  165.8244 C.3     1  UNL1        0.1348
     28 C         143.0121  143.1076  165.0623 C.ar    1  UNL1        0.0788
     29 C         143.8994  144.0621  164.3196 C.ar    1  UNL1        0.0165
     30 C         143.2988  145.2061  163.5575 C.ar    1  UNL1        0.0029
     31 C         141.8110  145.3954  163.5382 C.ar    1  UNL1        0.0207
     32 C         140.9237  144.4409  164.2809 C.ar    1  UNL1        0.0985
     33 N         141.5243  143.2970  165.0430 N.ar    1  UNL1       -0.2464
@<TRIPOS>BOND
     1    17    18    1
     2    18    11    1
     3    11    12   ar
     4    12    13   ar
     5    13    14   ar
     6    14     1    1
     7     1     2   ar
     8     2     3   ar
     9     3    25    1
    10    25    27    1
    11    27    28    1
    12    28    29   ar
    13    29    30   ar
    14    30    31   ar
    15    31    32   ar
    16    32    33   ar
    17     3     4   ar
    18     4     5   ar
    19     5    19    1
    20    19    20   ar
    21    20    21   ar
    22    21    22   ar
    23    22    23   ar
    24    23    24   ar
    25     5     6   ar
    26     6     7   ar
    27     7     8   ar
    28     8     9   ar
    29     9    10   ar
    30    14    15   ar
    31    15    16   ar
    32    16    11   ar
    33    10     1   ar
    34    33    28   ar
    35     9     4   ar
    36    24    19   ar
    37    25    26    1
@<TRIPOS>MOLECULE
*****
 33 37 0 0 0
SMALL
GASTEIGER

@<TRIPOS>ATOM
      1 C         140.5341  138.8279  160.6691 C.ar    1  UNL1        0.1666
      2 N         140.4497  140.3035  160.9257 N.ar    1  UNL1       -0.2120
      3 C         139.9082  140.8081  162.2303 C.ar    1  UNL1        0.1318
      4 C         139.4510  139.8372  163.2784 C.ar    1  UNL1        0.0491
      5 C         138.9095  140.3419  164.5831 C.ar    1  UNL1        0.0041
      6 C         138.4524  139.3711  165.6311 C.ar    1  UNL1        0.0002
      7 C         138.5368  137.8956  165.3746 C.ar    1  UNL1        0.0015
      8 C         139.0783  137.3910  164.0699 C.ar    1  UNL1        0.0192
      9 C         139.5354  138.3618  163.0219 C.ar    1  UNL1        0.0856
     10 N         140.0770  137.8571  161.7172 N.ar    1  UNL1       -0.2264
     11 C         142.1586  137.3140  156.7552 C.ar    1  UNL1        0.3201
     12 N         140.6936  137.6022  156.8979 N.ar    1  UNL1       -0.1926
     13 C         140.1520  138.1069  158.2026 C.ar    1  UNL1        0.1082
     14 C         141.0756  138.3233  159.3645 C.ar    1  UNL1        0.0743
     15 C         142.5408  138.0351  159.2218 C.ar    1  UNL1        0.1082
     16 N         143.0823  137.5304  157.9172 N.ar    1  UNL1       -0.1926
     17 C         143.9431  135.9700  155.4288 C.3     1  UNL1        0.2559
     18 O         142.7002  136.8094  155.4506 O.3     1  UNL1       -0.4426
     19 C         138.8251  141.8174  164.8396 C.ar    1  UNL1        0.0001
     20 C         139.8959  142.5027  165.6357 C.ar    1  UNL1        0.0000
     21 C         139.8115  143.9783  165.8922 C.ar    1  UNL1        0.0000
     22 C         138.6564  144.7684  165.3526 C.ar    1  UNL1        0.0000
     23 C         137.5855  144.0831  164.5565 C.ar    1  UNL1        0.0000
     24 C         137.6700  142.6076  164.3000 C.ar    1  UNL1        0.0000
     25 N         139.8238  142.2836  162.4869 N.pl3   1  UNL1       -0.3131
     26 H         139.0312  142.6612  162.9324 H       1  UNL1        0.1485
     27 C         140.9470  143.1837  162.0646 C.3     1  UNL1        0.1348
     28 C         142.0921  143.4426  162.9982 C.ar    1  UNL1        0.0788
     29 C         142.4825  144.8515  163.3336 C.ar    1  UNL1        0.0165
     30 C         143.6277  145.1104  164.2672 C.ar    1  UNL1        0.0029
     31 C         144.3825  143.9603  164.8654 C.ar    1  UNL1        0.0207
     32 C         143.9920  142.5514  164.5299 C.ar    1  UNL1        0.0985
     33 N         142.8469  142.2925  163.5963 N.ar    1  UNL1       -0.2464
@<TRIPOS>BOND
     1    17    18    1
     2    18    11    1
     3    11    12   ar
     4    12    13   ar
     5    13    14   ar
     6    14     1    1
     7     1     2   ar
     8     2     3   ar
     9     3    25    1
    10    25    27    1
    11    27    28    1
    12    28    29   ar
    13    29    30   ar
    14    30    31   ar
    15    31    32   ar
    16    32    33   ar
    17     3     4   ar
    18     4     5   ar
    19     5    19    1
    20    19    20   ar
    21    20    21   ar
    22    21    22   ar
    23    22    23   ar
    24    23    24   ar
    25     5     6   ar
    26     6     7   ar
    27     7     8   ar
    28     8     9   ar
    29     9    10   ar
    30    14    15   ar
    31    15    16   ar
    32    16    11   ar
    33    10     1   ar
    34    33    28   ar
    35     9     4   ar
    36    24    19   ar
    37    25    26    1
@<TRIPOS>MOLECULE
*****
 33 37 0 0 0
SMALL
GASTEIGER

@<TRIPOS>ATOM
      1 C         138.8877  142.3238  160.1570 C.ar    1  UNL1        0.1666
      2 N         140.3388  142.2745  160.5338 N.ar    1  UNL1       -0.2120
      3 C         140.7832  142.7806  161.8741 C.ar    1  UNL1        0.1318
      4 C         139.7766  143.3359  162.8376 C.ar    1  UNL1        0.0491
      5 C         140.2210  143.8420  164.1779 C.ar    1  UNL1        0.0041
      6 C         139.2144  144.3973  165.1414 C.ar    1  UNL1        0.0002
      7 C         137.7634  144.4466  164.7646 C.ar    1  UNL1        0.0015
      8 C         137.3190  143.9405  163.4243 C.ar    1  UNL1        0.0192
      9 C         138.3255  143.3852  162.4608 C.ar    1  UNL1        0.0856
     10 N         137.8811  142.8791  161.1205 N.ar    1  UNL1       -0.2264
     11 C         137.5543  140.8056  156.1362 C.ar    1  UNL1        0.3201
     12 N         137.5731  142.2798  156.4127 N.ar    1  UNL1       -0.1926
     13 C         138.0176  142.7858  157.7530 C.ar    1  UNL1        0.1082
     14 C         138.4432  141.8177  158.8168 C.ar    1  UNL1        0.0743
     15 C         138.4244  140.3435  158.5402 C.ar    1  UNL1        0.1082
     16 N         137.9800  139.8375  157.2000 N.ar    1  UNL1       -0.1926
     17 C         135.8770  139.4524  154.6852 C.3     1  UNL1        0.2559
     18 O         137.1099  140.2996  154.7959 O.3     1  UNL1       -0.4426
     19 C         141.6721  143.7927  164.5547 C.ar    1  UNL1        0.0001
     20 C         142.1678  142.7326  165.4931 C.ar    1  UNL1        0.0000
     21 C         143.6189  142.6833  165.8699 C.ar    1  UNL1        0.0000
     22 C         144.5743  143.6941  165.3082 C.ar    1  UNL1        0.0000
     23 C         144.0786  144.7542  164.3698 C.ar    1  UNL1        0.0000
     24 C         142.6276  144.8035  163.9930 C.ar    1  UNL1        0.0000
     25 N         142.2343  142.7313  162.2509 N.pl3   1  UNL1       -0.3131
     26 H         142.6559  143.5061  162.6880 H       1  UNL1        0.1485
     27 C         143.0429  141.5014  161.9618 C.3     1  UNL1        0.1348
     28 C         143.3577  140.5344  163.0645 C.ar    1  UNL1        0.0788
     29 C         144.7801  140.3178  163.4887 C.ar    1  UNL1        0.0165
     30 C         145.0949  139.3509  164.5914 C.ar    1  UNL1        0.0029
     31 C         143.9874  138.6005  165.2699 C.ar    1  UNL1        0.0207
     32 C         142.5650  138.8171  164.8456 C.ar    1  UNL1        0.0985
     33 N         142.2502  139.7841  163.7429 N.ar    1  UNL1       -0.2464
@<TRIPOS>BOND
     1    17    18    1
     2    18    11    1
     3    11    12   ar
     4    12    13   ar
     5    13    14   ar
     6    14     1    1
     7     1     2   ar
     8     2     3   ar
     9     3    25    1
    10    25    27    1
    11    27    28    1
    12    28    29   ar
    13    29    30   ar
    14    30    31   ar
    15    31    32   ar
    16    32    33   ar
    17     3     4   ar
    18     4     5   ar
    19     5    19    1
    20    19    20   ar
    21    20    21   ar
    22    21    22   ar
    23    22    23   ar
    24    23    24   ar
    25     5     6   ar
    26     6     7   ar
    27     7     8   ar
    28     8     9   ar
    29     9    10   ar
    30    14    15   ar
    31    15    16   ar
    32    16    11   ar
    33    10     1   ar
    34    33    28   ar
    35     9     4   ar
    36    24    19   ar
    37    25    26    1
@<TRIPOS>MOLECULE
*****
 33 37 0 0 0
SMALL
GASTEIGER

@<TRIPOS>ATOM
      1 C         141.5417  143.5940  160.6687 C.ar    1  UNL1        0.1666
      2 N         141.4628  142.1845  161.1757 N.ar    1  UNL1       -0.2120
      3 C         142.1141  141.8176  162.4762 C.ar    1  UNL1        0.1318
      4 C         142.8444  142.8604  163.2696 C.ar    1  UNL1        0.0491
      5 C         143.4957  142.4936  164.5701 C.ar    1  UNL1        0.0041
      6 C         144.2260  143.5362  165.3635 C.ar    1  UNL1        0.0002
      7 C         144.3048  144.9457  164.8565 C.ar    1  UNL1        0.0015
      8 C         143.6535  145.3125  163.5561 C.ar    1  UNL1        0.0192
      9 C         142.9233  144.2699  162.7626 C.ar    1  UNL1        0.0856
     10 N         142.2719  144.6367  161.4622 N.ar    1  UNL1       -0.2264
     11 C         139.5876  144.6945  156.7674 C.ar    1  UNL1        0.3201
     12 N         139.5909  143.2671  157.2281 N.ar    1  UNL1       -0.1926
     13 C         140.2423  142.9003  158.5286 C.ar    1  UNL1        0.1082
     14 C         140.8903  143.9609  159.3683 C.ar    1  UNL1        0.0743
     15 C         140.8871  145.3884  158.9075 C.ar    1  UNL1        0.1082
     16 N         140.2357  145.7552  157.6070 N.ar    1  UNL1       -0.1926
     17 C         137.5580  144.5609  155.1510 C.3     1  UNL1        0.2559
     18 O         138.9363  145.0614  155.4669 O.3     1  UNL1       -0.4426
     19 C         143.4168  141.0840  165.0771 C.ar    1  UNL1        0.0001
     20 C         144.3895  140.0541  164.5840 C.ar    1  UNL1        0.0000
     21 C         144.3106  138.6445  165.0910 C.ar    1  UNL1        0.0000
     22 C         143.2590  138.2649  166.0910 C.ar    1  UNL1        0.0000
     23 C         142.2863  139.2949  166.5841 C.ar    1  UNL1        0.0000
     24 C         142.3652  140.7044  166.0771 C.ar    1  UNL1        0.0000
     25 N         142.0353  140.4082  162.9832 N.pl3   1  UNL1       -0.3131
     26 H         142.7914  140.0210  163.4807 H       1  UNL1        0.1485
     27 C         140.8043  139.5886  162.7321 C.3     1  UNL1        0.1348
     28 C         139.9031  139.2200  163.8731 C.ar    1  UNL1        0.0788
     29 C         139.8007  137.7907  164.3164 C.ar    1  UNL1        0.0165
     30 C         138.8995  137.4220  165.4575 C.ar    1  UNL1        0.0029
     31 C         138.1007  138.4827  166.1552 C.ar    1  UNL1        0.0207
     32 C         138.2031  139.9121  165.7119 C.ar    1  UNL1        0.0985
     33 N         139.1043  140.2807  164.5709 N.ar    1  UNL1       -0.2464
@<TRIPOS>BOND
     1    17    18    1
     2    18    11    1
     3    11    12   ar
     4    12    13   ar
     5    13    14   ar
     6    14     1    1
     7     1     2   ar
     8     2     3   ar
     9     3    25    1
    10    25    27    1
    11    27    28    1
    12    28    29   ar
    13    29    30   ar
    14    30    31   ar
    15    31    32   ar
    16    32    33   ar
    17     3     4   ar
    18     4     5   ar
    19     5    19    1
    20    19    20   ar
    21    20    21   ar
    22    21    22   ar
    23    22    23   ar
    24    23    24   ar
    25     5     6   ar
    26     6     7   ar
    27     7     8   ar
    28     8     9   ar
    29     9    10   ar
    30    14    15   ar
    31    15    16   ar
    32    16    11   ar
    33    10     1   ar
    34    33    28   ar
    35     9     4   ar
    36    24    19   ar
    37    25    26    1
@<TRIPOS>MOLECULE
*****
 33 37 0 0 0
SMALL
GASTEIGER

@<TRIPOS>ATOM
      1 C         139.7623  141.9296  163.0769 C.ar    1  UNL1        0.1666
      2 N         140.7391  142.5889  164.0050 N.ar    1  UNL1       -0.2120
      3 C         140.8015  142.1750  165.4455 C.ar    1  UNL1        0.1318
      4 C         139.8870  141.1019  165.9577 C.ar    1  UNL1        0.0491
      5 C         139.9494  140.6880  167.3981 C.ar    1  UNL1        0.0041
      6 C         139.0350  139.6150  167.9104 C.ar    1  UNL1        0.0002
      7 C         138.0583  138.9558  166.9823 C.ar    1  UNL1        0.0015
      8 C         137.9960  139.3697  165.5419 C.ar    1  UNL1        0.0192
      9 C         138.9103  140.4427  165.0296 C.ar    1  UNL1        0.0856
     10 N         138.8480  140.8566  163.5892 N.ar    1  UNL1       -0.2264
     11 C         139.5753  143.1713  158.7556 C.ar    1  UNL1        0.3201
     12 N         140.9034  143.0257  159.4373 N.ar    1  UNL1       -0.1926
     13 C         140.9658  142.6118  160.8777 C.ar    1  UNL1        0.1082
     14 C         139.7000  142.3435  161.6365 C.ar    1  UNL1        0.0743
     15 C         138.3717  142.4891  160.9548 C.ar    1  UNL1        0.1082
     16 N         138.3094  142.9030  159.5143 N.ar    1  UNL1       -0.1926
     17 C         140.7411  143.5045  156.4578 C.3     1  UNL1        0.2559
     18 O         139.5129  143.5852  157.3152 O.3     1  UNL1       -0.4426
     19 C         140.9262  141.3472  168.3263 C.ar    1  UNL1        0.0001
     20 C         140.5704  142.6433  168.9923 C.ar    1  UNL1        0.0000
     21 C         141.5472  143.3026  169.9204 C.ar    1  UNL1        0.0000
     22 C         142.8797  142.6656  170.1826 C.ar    1  UNL1        0.0000
     23 C         143.2354  141.3695  169.5165 C.ar    1  UNL1        0.0000
     24 C         142.2587  140.7103  168.5884 C.ar    1  UNL1        0.0000
     25 N         141.7782  142.8342  166.3736 N.pl3   1  UNL1       -0.3131
     26 H         141.4556  143.2928  167.1828 H       1  UNL1        0.1485
     27 C         143.2464  142.7945  166.0688 C.3     1  UNL1        0.1348
     28 C         143.7574  141.9345  164.9512 C.ar    1  UNL1        0.0788
     29 C         143.8159  140.4449  165.1176 C.ar    1  UNL1        0.0165
     30 C         144.3269  139.5848  163.9999 C.ar    1  UNL1        0.0029
     31 C         144.7795  140.2144  162.7158 C.ar    1  UNL1        0.0207
     32 C         144.7210  141.7041  162.5494 C.ar    1  UNL1        0.0985
     33 N         144.2100  142.5641  163.6671 N.ar    1  UNL1       -0.2464
@<TRIPOS>BOND
     1    17    18    1
     2    18    11    1
     3    11    12   ar
     4    12    13   ar
     5    13    14   ar
     6    14     1    1
     7     1     2   ar
     8     2     3   ar
     9     3    25    1
    10    25    27    1
    11    27    28    1
    12    28    29   ar
    13    29    30   ar
    14    30    31   ar
    15    31    32   ar
    16    32    33   ar
    17     3     4   ar
    18     4     5   ar
    19     5    19    1
    20    19    20   ar
    21    20    21   ar
    22    21    22   ar
    23    22    23   ar
    24    23    24   ar
    25     5     6   ar
    26     6     7   ar
    27     7     8   ar
    28     8     9   ar
    29     9    10   ar
    30    14    15   ar
    31    15    16   ar
    32    16    11   ar
    33    10     1   ar
    34    33    28   ar
    35     9     4   ar
    36    24    19   ar
    37    25    26    1
@<TRIPOS>MOLECULE
*****
 33 37 0 0 0
SMALL
GASTEIGER

@<TRIPOS>ATOM
      1 C         140.1721  142.1566  161.9350 C.ar    1  UNL1        0.1666
      2 N         140.6457  142.5102  163.3137 N.ar    1  UNL1       -0.2120
      3 C         140.5542  141.5013  164.4199 C.ar    1  UNL1        0.1318
      4 C         139.9893  140.1387  164.1474 C.ar    1  UNL1        0.0491
      5 C         139.8978  139.1297  165.2536 C.ar    1  UNL1        0.0041
      6 C         139.3329  137.7672  164.9811 C.ar    1  UNL1        0.0002
      7 C         138.8594  137.4136  163.6025 C.ar    1  UNL1        0.0015
      8 C         138.9508  138.4225  162.4963 C.ar    1  UNL1        0.0192
      9 C         139.5158  139.7851  162.7687 C.ar    1  UNL1        0.0856
     10 N         139.6072  140.7940  161.6626 N.ar    1  UNL1       -0.2264
     11 C         140.4464  145.1834  158.6164 C.ar    1  UNL1        0.3201
     12 N         139.3916  144.1178  158.5743 N.ar    1  UNL1       -0.1926
     13 C         139.3002  143.1089  159.6805 C.ar    1  UNL1        0.1082
     14 C         140.2636  143.1655  160.8288 C.ar    1  UNL1        0.0743
     15 C         141.3185  144.2312  160.8710 C.ar    1  UNL1        0.1082
     16 N         141.4099  145.2401  159.7648 N.ar    1  UNL1       -0.1926
     17 C         141.5728  146.0357  156.4359 C.3     1  UNL1        0.2559
     18 O         140.5379  146.1924  157.5102 O.3     1  UNL1       -0.4426
     19 C         140.3714  139.4834  166.6323 C.ar    1  UNL1        0.0001
     20 C         141.8033  139.2537  167.0154 C.ar    1  UNL1        0.0000
     21 C         142.2768  139.6073  168.3941 C.ar    1  UNL1        0.0000
     22 C         141.3184  140.1907  169.3897 C.ar    1  UNL1        0.0000
     23 C         139.8864  140.4204  169.0065 C.ar    1  UNL1        0.0000
     24 C         139.4129  140.0667  167.6278 C.ar    1  UNL1        0.0000
     25 N         141.0277  141.8549  165.7986 N.pl3   1  UNL1       -0.3131
     26 H         140.4505  141.6811  166.5769 H       1  UNL1        0.1485
     27 C         142.3808  142.4732  165.9913 C.3     1  UNL1        0.1348
     28 C         143.4590  142.2509  164.9725 C.ar    1  UNL1        0.0788
     29 C         144.1850  140.9393  164.9230 C.ar    1  UNL1        0.0165
     30 C         145.2633  140.7169  163.9042 C.ar    1  UNL1        0.0029
     31 C         145.6155  141.8062  162.9349 C.ar    1  UNL1        0.0207
     32 C         144.8894  143.1179  162.9845 C.ar    1  UNL1        0.0985
     33 N         143.8112  143.3402  164.0033 N.ar    1  UNL1       -0.2464
@<TRIPOS>BOND
     1    17    18    1
     2    18    11    1
     3    11    12   ar
     4    12    13   ar
     5    13    14   ar
     6    14     1    1
     7     1     2   ar
     8     2     3   ar
     9     3    25    1
    10    25    27    1
    11    27    28    1
    12    28    29   ar
    13    29    30   ar
    14    30    31   ar
    15    31    32   ar
    16    32    33   ar
    17     3     4   ar
    18     4     5   ar
    19     5    19    1
    20    19    20   ar
    21    20    21   ar
    22    21    22   ar
    23    22    23   ar
    24    23    24   ar
    25     5     6   ar
    26     6     7   ar
    27     7     8   ar
    28     8     9   ar
    29     9    10   ar
    30    14    15   ar
    31    15    16   ar
    32    16    11   ar
    33    10     1   ar
    34    33    28   ar
    35     9     4   ar
    36    24    19   ar
    37    25    26    1
@<TRIPOS>MOLECULE
*****
 33 37 0 0 0
SMALL
GASTEIGER

@<TRIPOS>ATOM
      1 C         143.3962  140.5020  161.0231 C.ar    1  UNL1        0.1666
      2 N         141.9504  140.4015  161.4098 N.ar    1  UNL1       -0.2120
      3 C         141.5716  139.9051  162.7737 C.ar    1  UNL1        0.1318
      4 C         142.6387  139.5093  163.7509 C.ar    1  UNL1        0.0491
      5 C         142.2599  139.0129  165.1147 C.ar    1  UNL1        0.0041
      6 C         143.3268  138.6170  166.0919 C.ar    1  UNL1        0.0002
      7 C         144.7726  138.7175  165.7051 C.ar    1  UNL1        0.0015
      8 C         145.1514  139.2139  164.3412 C.ar    1  UNL1        0.0192
      9 C         144.0844  139.6097  163.3641 C.ar    1  UNL1        0.0856
     10 N         144.4632  140.1061  162.0002 N.ar    1  UNL1       -0.2264
     11 C         144.5326  141.9910  156.9315 C.ar    1  UNL1        0.3201
     12 N         143.9887  140.6034  157.1003 N.ar    1  UNL1       -0.1926
     13 C         143.6099  140.1070  158.4642 C.ar    1  UNL1        0.1082
     14 C         143.7750  140.9983  159.6592 C.ar    1  UNL1        0.0743
     15 C         144.3190  142.3860  159.4905 C.ar    1  UNL1        0.1082
     16 N         144.6978  142.8824  158.1266 N.ar    1  UNL1       -0.1926
     17 C         144.5831  141.6694  154.3539 C.3     1  UNL1        0.2559
     18 O         144.9114  142.4873  155.5676 O.3     1  UNL1       -0.4426
     19 C         140.8140  138.9124  165.5015 C.ar    1  UNL1        0.0001
     20 C         140.1656  140.0223  166.2745 C.ar    1  UNL1        0.0000
     21 C         138.7197  139.9218  166.6613 C.ar    1  UNL1        0.0000
     22 C         137.9224  138.7115  166.2749 C.ar    1  UNL1        0.0000
     23 C         138.5709  137.6016  165.5018 C.ar    1  UNL1        0.0000
     24 C         140.0167  137.7021  165.1151 C.ar    1  UNL1        0.0000
     25 N         140.1258  139.8047  163.1605 N.pl3   1  UNL1       -0.3131
     26 H         139.8136  139.0465  163.7055 H       1  UNL1        0.1485
     27 C         139.1557  140.8593  162.7169 C.3     1  UNL1        0.1348
     28 C         139.0960  142.1739  163.4367 C.ar    1  UNL1        0.0788
     29 C         137.8488  142.5722  164.1686 C.ar    1  UNL1        0.0165
     30 C         137.7891  143.8869  164.8885 C.ar    1  UNL1        0.0029
     31 C         138.9766  144.8032  164.8763 C.ar    1  UNL1        0.0207
     32 C         140.2239  144.4048  164.1444 C.ar    1  UNL1        0.0985
     33 N         140.2836  143.0902  163.4246 N.ar    1  UNL1       -0.2464
@<TRIPOS>BOND
     1    17    18    1
     2    18    11    1
     3    11    12   ar
     4    12    13   ar
     5    13    14   ar
     6    14     1    1
     7     1     2   ar
     8     2     3   ar
     9     3    25    1
    10    25    27    1
    11    27    28    1
    12    28    29   ar
    13    29    30   ar
    14    30    31   ar
    15    31    32   ar
    16    32    33   ar
    17     3     4   ar
    18     4     5   ar
    19     5    19    1
    20    19    20   ar
    21    20    21   ar
    22    21    22   ar
    23    22    23   ar
    24    23    24   ar
    25     5     6   ar
    26     6     7   ar
    27     7     8   ar
    28     8     9   ar
    29     9    10   ar
    30    14    15   ar
    31    15    16   ar
    32    16    11   ar
    33    10     1   ar
    34    33    28   ar
    35     9     4   ar
    36    24    19   ar
    37    25    26    1
@<TRIPOS>MOLECULE
*****
 33 37 0 0 0
SMALL
GASTEIGER

@<TRIPOS>ATOM
      1 C         140.9295  140.0066  160.5668 C.ar    1  UNL1        0.1666
      2 N         141.1688  139.4077  161.9211 N.ar    1  UNL1       -0.2120
      3 C         140.4604  139.9614  163.1218 C.ar    1  UNL1        0.1318
      4 C         139.5126  141.1139  162.9680 C.ar    1  UNL1        0.0491
      5 C         138.8042  141.6676  164.1687 C.ar    1  UNL1        0.0041
      6 C         137.8565  142.8201  164.0150 C.ar    1  UNL1        0.0002
      7 C         137.6172  143.4189  162.6607 C.ar    1  UNL1        0.0015
      8 C         138.3257  142.8652  161.4601 C.ar    1  UNL1        0.0192
      9 C         139.2734  141.7127  161.6138 C.ar    1  UNL1        0.0856
     10 N         139.9818  141.1590  160.4131 N.ar    1  UNL1       -0.2264
     11 C         143.0548  138.3456  156.9648 C.ar    1  UNL1        0.3201
     12 N         141.6279  137.9691  157.2335 N.ar    1  UNL1       -0.1926
     13 C         140.9195  138.5227  158.4342 C.ar    1  UNL1        0.1082
     14 C         141.6379  139.4529  159.3661 C.ar    1  UNL1        0.0743
     15 C         143.0649  139.8295  159.0974 C.ar    1  UNL1        0.1082
     16 N         143.7733  139.2758  157.8968 N.ar    1  UNL1       -0.1926
     17 C         144.0437  136.3213  155.6708 C.3     1  UNL1        0.2559
     18 O         143.7633  137.7919  155.7642 O.3     1  UNL1       -0.4426
     19 C         139.0435  141.0688  165.5230 C.ar    1  UNL1        0.0001
     20 C         138.3032  139.8318  165.9376 C.ar    1  UNL1        0.0000
     21 C         138.5425  139.2329  167.2919 C.ar    1  UNL1        0.0000
     22 C         139.5221  139.8712  168.2317 C.ar    1  UNL1        0.0000
     23 C         140.2624  141.1082  167.8171 C.ar    1  UNL1        0.0000
     24 C         140.0230  141.7070  166.4628 C.ar    1  UNL1        0.0000
     25 N         140.6996  139.3626  164.4761 N.pl3   1  UNL1       -0.3131
     26 H         139.9366  139.1237  165.0504 H       1  UNL1        0.1485
     27 C         142.1015  139.1278  164.9553 C.3     1  UNL1        0.1348
     28 C         143.1694  140.1436  164.6766 C.ar    1  UNL1        0.0788
     29 C         144.3031  139.8061  163.7542 C.ar    1  UNL1        0.0165
     30 C         145.3711  140.8219  163.4754 C.ar    1  UNL1        0.0029
     31 C         145.3053  142.1752  164.1191 C.ar    1  UNL1        0.0207
     32 C         144.1716  142.5127  165.0415 C.ar    1  UNL1        0.0985
     33 N         143.1037  141.4969  165.3203 N.ar    1  UNL1       -0.2464
@<TRIPOS>BOND
     1    17    18    1
     2    18    11    1
     3    11    12   ar
     4    12    13   ar
     5    13    14   ar
     6    14     1    1
     7     1     2   ar
     8     2     3   ar
     9     3    25    1
    10    25    27    1
    11    27    28    1
    12    28    29   ar
    13    29    30   ar
    14    30    31   ar
    15    31    32   ar
    16    32    33   ar
    17     3     4   ar
    18     4     5   ar
    19     5    19    1
    20    19    20   ar
    21    20    21   ar
    22    21    22   ar
    23    22    23   ar
    24    23    24   ar
    25     5     6   ar
    26     6     7   ar
    27     7     8   ar
    28     8     9   ar
    29     9    10   ar
    30    14    15   ar
    31    15    16   ar
    32    16    11   ar
    33    10     1   ar
    34    33    28   ar
    35     9     4   ar
    36    24    19   ar
    37    25    26    1
@<TRIPOS>MOLECULE
*****
 33 37 0 0 0
SMALL
GASTEIGER

@<TRIPOS>ATOM
      1 C         142.7567  140.4102  161.3951 C.ar    1  UNL1        0.1666
      2 N         143.0930  141.0620  162.7036 N.ar    1  UNL1       -0.2120
      3 C         142.3684  140.6551  163.9524 C.ar    1  UNL1        0.1318
      4 C         141.3075  139.5963  163.8926 C.ar    1  UNL1        0.0491
      5 C         140.5829  139.1893  165.1413 C.ar    1  UNL1        0.0041
      6 C         139.5221  138.1306  165.0816 C.ar    1  UNL1        0.0002
      7 C         139.1858  137.4788  163.7732 C.ar    1  UNL1        0.0015
      8 C         139.9104  137.8858  162.5244 C.ar    1  UNL1        0.0192
      9 C         140.9713  138.9445  162.5842 C.ar    1  UNL1        0.0856
     10 N         141.6959  139.3515  161.3354 N.ar    1  UNL1       -0.2264
     11 C         144.9305  141.6311  157.6489 C.ar    1  UNL1        0.3201
     12 N         144.4204  140.2283  157.7966 N.ar    1  UNL1       -0.1926
     13 C         143.6958  139.8214  159.0454 C.ar    1  UNL1        0.1082
     14 C         143.4813  140.8172  160.1464 C.ar    1  UNL1        0.0743
     15 C         143.9915  142.2201  159.9988 C.ar    1  UNL1        0.1082
     16 N         144.7161  142.6270  158.7500 N.ar    1  UNL1       -0.1926
     17 C         147.0903  142.4681  156.4722 C.3     1  UNL1        0.2559
     18 O         145.6551  142.0381  156.4002 O.3     1  UNL1       -0.4426
     19 C         140.9192  139.8411  166.4498 C.ar    1  UNL1        0.0001
     20 C         140.0355  140.9219  166.9983 C.ar    1  UNL1        0.0000
     21 C         140.3718  141.5738  168.3068 C.ar    1  UNL1        0.0000
     22 C         141.5919  141.1447  169.0668 C.ar    1  UNL1        0.0000
     23 C         142.4756  140.0639  168.5182 C.ar    1  UNL1        0.0000
     24 C         142.1393  139.4121  167.2097 C.ar    1  UNL1        0.0000
     25 N         142.7047  141.3068  165.2608 N.pl3   1  UNL1       -0.3131
     26 H         142.9182  140.7529  166.0462 H       1  UNL1        0.1485
     27 C         142.7157  142.8027  165.3727 C.3     1  UNL1        0.1348
     28 C         141.7082  143.6186  164.6183 C.ar    1  UNL1        0.0788
     29 C         140.2960  143.7128  165.1150 C.ar    1  UNL1        0.0165
     30 C         139.2885  144.5288  164.3606 C.ar    1  UNL1        0.0029
     31 C         139.6932  145.2506  163.1096 C.ar    1  UNL1        0.0207
     32 C         141.1055  145.1564  162.6128 C.ar    1  UNL1        0.0985
     33 N         142.1129  144.3404  163.3672 N.ar    1  UNL1       -0.2464
@<TRIPOS>BOND
     1    17    18    1
     2    18    11    1
     3    11    12   ar
     4    12    13   ar
     5    13    14   ar
     6    14     1    1
     7     1     2   ar
     8     2     3   ar
     9     3    25    1
    10    25    27    1
    11    27    28    1
    12    28    29   ar
    13    29    30   ar
    14    30    31   ar
    15    31    32   ar
    16    32    33   ar
    17     3     4   ar
    18     4     5   ar
    19     5    19    1
    20    19    20   ar
    21    20    21   ar
    22    21    22   ar
    23    22    23   ar
    24    23    24   ar
    25     5     6   ar
    26     6     7   ar
    27     7     8   ar
    28     8     9   ar
    29     9    10   ar
    30    14    15   ar
    31    15    16   ar
    32    16    11   ar
    33    10     1   ar
    34    33    28   ar
    35     9     4   ar
    36    24    19   ar
    37    25    26    1
