@<TRIPOS>MOLECULE
*****
 37 43 0 0 0
SMALL
GASTEIGER

@<TRIPOS>ATOM
      1 C         138.5383  141.8154  164.4422 C.3     1  UNL1        0.0955
      2 C         139.0117  143.0880  165.0800 C.3     1  UNL1        0.0287
      3 C         139.0144  144.3653  164.2936 C.3     1  UNL1        0.0193
      4 C         138.5438  144.3701  162.8693 C.3     1  UNL1        0.0700
      5 C         138.0704  143.0976  162.2316 C.3     1  UNL1        0.0193
      6 C         138.0677  141.8203  163.0180 C.3     1  UNL1        0.0287
      7 C         138.5239  143.6456  163.2602 C.3     1  UNL1        0.1562
      8 O         138.5215  142.4907  163.9713 O.3     1  UNL1       -0.3571
      9 N         138.5465  145.6474  162.0829 N.3     1  UNL1       -0.2926
     10 H         138.2029  146.3778  162.7064 H       1  UNL1        0.1236
     11 C         139.8237  146.1558  161.4827 C.3     1  UNL1        0.1152
     12 C         140.8937  145.1901  161.0673 C.ar    1  UNL1        0.0756
     13 C         141.9579  144.7843  162.0434 C.ar    1  UNL1        0.0254
     14 C         143.0279  143.8186  161.6279 C.ar    1  UNL1        0.0653
     15 C         143.0337  143.2588  160.2363 C.ar    1  UNL1        0.1646
     16 C         141.9695  143.6647  159.2602 C.ar    1  UNL1        0.1358
     17 N         140.8996  144.6303  159.6757 N.ar    1  UNL1       -0.2436
     18 O         144.2073  142.3328  160.1141 O.3     1  UNL1       -0.4611
     19 C         144.9268  142.3202  161.4302 C.3     1  UNL1        0.2681
     20 S         144.1979  143.2385  162.3658 S.3     1  UNL1       -0.0640
     21 C         138.5356  140.5381  165.2287 C.3     1  UNL1        0.0604
     22 O         138.9446  140.9836  170.3195 O.2     1  UNL1       -0.2670
     23 C         140.1466  140.3435  169.6907 C.ar    1  UNL1        0.2611
     24 C         141.3003  139.9117  170.5466 C.ar    1  UNL1        0.0623
     25 C         142.5023  139.2716  169.9178 C.ar    1  UNL1        0.0254
     26 C         142.5508  139.0634  168.4332 C.ar    1  UNL1        0.0972
     27 N         143.6073  138.4589  167.5451 N.ar    1  UNL1       -0.2400
     28 C         143.5133  138.3165  166.0549 C.ar    1  UNL1        0.1282
     29 C         142.2905  138.7971  165.3312 C.ar    1  UNL1        0.1588
     30 F         142.1964  138.6547  163.8410 F       1  UNL1       -0.2027
     31 C         141.1617  139.4202  166.0978 C.ar    1  UNL1        0.0500
     32 C         141.3971  139.4952  167.5773 C.ar    1  UNL1        0.0806
     33 N         140.1951  140.1353  168.2061 N.ar    1  UNL1       -0.2915
     34 C         139.2167  140.4558  167.1152 C.3     1  UNL1        0.1402
     35 C         139.8141  140.0139  165.8122 C.3     1  UNL1        0.1335
     36 O         140.1443  139.6816  164.3872 O.3     1  UNL1       -0.3806
     37 H         139.4105  139.9526  163.8136 H       1  UNL1        0.2108
@<TRIPOS>BOND
     1    22    23    2
     2    23    24   ar
     3    24    25   ar
     4    25    26   ar
     5    26    27   ar
     6    27    28   ar
     7    28    29   ar
     8    29    30    1
     9    29    31   ar
    10    31    32   ar
    11    32    33   ar
    12    33    34    1
    13    34    35    1
    14    35    36    1
    15    35    21    1
    16    21     1    1
    17     1     2    1
    18     2     3    1
    19     3     4    1
    20     4     9    1
    21     9    11    1
    22    11    12    1
    23    12    13   ar
    24    13    14   ar
    25    14    15   ar
    26    15    16   ar
    27    16    17   ar
    28    15    18    1
    29    18    19    1
    30    19    20    1
    31     4     5    1
    32     5     6    1
    33     4     7    1
    34     7     8    1
    35    33    23   ar
    36     6     1    1
    37    32    26   ar
    38     8     1    1
    39    35    31    1
    40    17    12   ar
    41    20    14    1
    42    36    37    1
    43     9    10    1
@<TRIPOS>MOLECULE
*****
 37 43 0 0 0
SMALL
GASTEIGER

@<TRIPOS>ATOM
      1 C         143.1412  142.8125  164.2133 C.3     1  UNL1        0.0955
      2 C         143.4851  142.3114  162.8418 C.3     1  UNL1        0.0287
      3 C         143.1145  143.1191  161.6334 C.3     1  UNL1        0.0193
      4 C         142.4000  144.4279  161.7964 C.3     1  UNL1        0.0700
      5 C         142.0562  144.9290  163.1677 C.3     1  UNL1        0.0193
      6 C         142.4268  144.1213  164.3762 C.3     1  UNL1        0.0287
      7 C         142.5825  144.0205  162.4883 C.3     1  UNL1        0.1562
      8 O         142.9176  143.2902  163.5810 O.3     1  UNL1       -0.3571
      9 N         142.0294  145.2356  160.5880 N.3     1  UNL1       -0.2926
     10 H         142.7181  145.0200  159.8671 H       1  UNL1        0.1236
     11 C         140.6778  145.0680  159.9596 C.3     1  UNL1        0.1152
     12 C         139.7563  143.9863  160.4400 C.ar    1  UNL1        0.0756
     13 C         139.7283  142.6594  159.7411 C.ar    1  UNL1        0.0254
     14 C         138.8068  141.5778  160.2216 C.ar    1  UNL1        0.0653
     15 C         137.9131  141.8231  161.4011 C.ar    1  UNL1        0.1646
     16 C         137.9411  143.1500  162.1001 C.ar    1  UNL1        0.1358
     17 N         138.8626  144.2316  161.6195 N.ar    1  UNL1       -0.2436
     18 O         137.1157  140.5765  161.6456 O.3     1  UNL1       -0.4611
     19 C         137.5164  139.5607  160.6172 C.3     1  UNL1        0.2681
     20 S         138.5616  140.1796  159.7372 S.3     1  UNL1       -0.0640
     21 C         143.5118  142.0048  165.4217 C.3     1  UNL1        0.0604
     22 O         143.9926  143.2962  170.3597 O.2     1  UNL1       -0.2670
     23 C         142.7868  142.4445  170.0934 C.ar    1  UNL1        0.2611
     24 C         141.8747  142.0622  171.2211 C.ar    1  UNL1        0.0623
     25 C         140.6690  141.2106  170.9548 C.ar    1  UNL1        0.0254
     26 C         140.3753  140.7413  169.5608 C.ar    1  UNL1        0.0972
     27 N         139.2592  139.8928  169.0087 N.ar    1  UNL1       -0.2400
     28 C         139.0949  139.5006  167.5703 C.ar    1  UNL1        0.1282
     29 C         140.0925  139.9606  166.5489 C.ar    1  UNL1        0.1588
     30 F         139.9283  139.5683  165.1104 F       1  UNL1       -0.2027
     31 C         141.2544  140.8128  166.9659 C.ar    1  UNL1        0.0500
     32 C         141.2874  141.1237  168.4330 C.ar    1  UNL1        0.0806
     33 N         142.4931  141.9753  168.6993 N.ar    1  UNL1       -0.2915
     34 C         143.2053  142.1907  167.3968 C.3     1  UNL1        0.1402
     35 C         142.4397  141.4722  166.3255 C.3     1  UNL1        0.1335
     36 O         141.8982  140.8651  165.0653 O.3     1  UNL1       -0.3806
     37 H         142.4734  141.0996  164.3203 H       1  UNL1        0.2108
@<TRIPOS>BOND
     1    22    23    2
     2    23    24   ar
     3    24    25   ar
     4    25    26   ar
     5    26    27   ar
     6    27    28   ar
     7    28    29   ar
     8    29    30    1
     9    29    31   ar
    10    31    32   ar
    11    32    33   ar
    12    33    34    1
    13    34    35    1
    14    35    36    1
    15    35    21    1
    16    21     1    1
    17     1     2    1
    18     2     3    1
    19     3     4    1
    20     4     9    1
    21     9    11    1
    22    11    12    1
    23    12    13   ar
    24    13    14   ar
    25    14    15   ar
    26    15    16   ar
    27    16    17   ar
    28    15    18    1
    29    18    19    1
    30    19    20    1
    31     4     5    1
    32     5     6    1
    33     4     7    1
    34     7     8    1
    35    33    23   ar
    36     6     1    1
    37    32    26   ar
    38     8     1    1
    39    35    31    1
    40    17    12   ar
    41    20    14    1
    42    36    37    1
    43     9    10    1
@<TRIPOS>MOLECULE
*****
 37 43 0 0 0
SMALL
GASTEIGER

@<TRIPOS>ATOM
      1 C         143.1449  142.6439  164.4736 C.3     1  UNL1        0.0955
      2 C         142.5316  144.0036  164.6325 C.3     1  UNL1        0.0287
      3 C         142.2068  144.8262  163.4210 C.3     1  UNL1        0.0193
      4 C         142.4952  144.2891  162.0505 C.3     1  UNL1        0.0700
      5 C         143.1084  142.9294  161.8915 C.3     1  UNL1        0.0193
      6 C         143.4333  142.1068  163.1031 C.3     1  UNL1        0.0287
      7 C         142.6907  143.8015  162.6846 C.3     1  UNL1        0.1562
      8 O         142.9844  143.0578  163.7801 O.3     1  UNL1       -0.3571
      9 N         142.1703  145.1116  160.8389 N.3     1  UNL1       -0.2926
     10 H         142.8280  144.8349  160.1101 H       1  UNL1        0.1236
     11 C         140.7997  145.0455  160.2331 C.3     1  UNL1        0.1152
     12 C         139.8375  143.9805  160.6691 C.ar    1  UNL1        0.0756
     13 C         139.8483  142.6393  159.9974 C.ar    1  UNL1        0.0254
     14 C         138.8861  141.5744  160.4335 C.ar    1  UNL1        0.0653
     15 C         137.9132  141.8506  161.5412 C.ar    1  UNL1        0.1646
     16 C         137.9024  143.1917  162.2129 C.ar    1  UNL1        0.1358
     17 N         138.8646  144.2567  161.7768 N.ar    1  UNL1       -0.2436
     18 O         137.0902  140.6148  161.7541 O.3     1  UNL1       -0.4611
     19 C         137.5545  139.5748  160.7779 C.3     1  UNL1        0.2681
     20 S         138.6644  140.1678  159.9618 S.3     1  UNL1       -0.0640
     21 C         143.4698  141.8214  165.6852 C.3     1  UNL1        0.0604
     22 O         139.8212  138.9250  163.5447 O.2     1  UNL1       -0.2670
     23 C         139.5830  139.1810  165.0034 C.ar    1  UNL1        0.2611
     24 C         138.3729  138.6060  165.6780 C.ar    1  UNL1        0.0623
     25 C         138.1347  138.8620  167.1366 C.ar    1  UNL1        0.0254
     26 C         139.1065  139.6931  167.9207 C.ar    1  UNL1        0.0972
     27 N         139.1227  140.1067  169.3695 N.ar    1  UNL1       -0.2400
     28 C         140.1766  140.9525  170.0206 C.ar    1  UNL1        0.1282
     29 C         141.3358  141.4588  169.2144 C.ar    1  UNL1        0.1588
     30 F         142.3897  142.3046  169.8654 F       1  UNL1       -0.2027
     31 C         141.4410  141.1193  167.7571 C.ar    1  UNL1        0.0500
     32 C         140.3166  140.2681  167.2462 C.ar    1  UNL1        0.0806
     33 N         140.5548  140.0121  165.7875 N.ar    1  UNL1       -0.2915
     34 C         141.8265  140.7051  165.3970 C.3     1  UNL1        0.1402
     35 C         142.3742  141.3894  166.6142 C.3     1  UNL1        0.1335
     36 O         143.1510  142.1640  167.6372 O.3     1  UNL1       -0.3806
     37 H         143.9403  142.5462  167.2227 H       1  UNL1        0.2108
@<TRIPOS>BOND
     1    22    23    2
     2    23    24   ar
     3    24    25   ar
     4    25    26   ar
     5    26    27   ar
     6    27    28   ar
     7    28    29   ar
     8    29    30    1
     9    29    31   ar
    10    31    32   ar
    11    32    33   ar
    12    33    34    1
    13    34    35    1
    14    35    36    1
    15    35    21    1
    16    21     1    1
    17     1     2    1
    18     2     3    1
    19     3     4    1
    20     4     9    1
    21     9    11    1
    22    11    12    1
    23    12    13   ar
    24    13    14   ar
    25    14    15   ar
    26    15    16   ar
    27    16    17   ar
    28    15    18    1
    29    18    19    1
    30    19    20    1
    31     4     5    1
    32     5     6    1
    33     4     7    1
    34     7     8    1
    35    33    23   ar
    36     6     1    1
    37    32    26   ar
    38     8     1    1
    39    35    31    1
    40    17    12   ar
    41    20    14    1
    42    36    37    1
    43     9    10    1
@<TRIPOS>MOLECULE
*****
 37 43 0 0 0
SMALL
GASTEIGER

@<TRIPOS>ATOM
      1 C         138.7661  139.0199  164.1309 C.3     1  UNL1        0.0955
      2 C         138.9122  137.9852  163.0546 C.3     1  UNL1        0.0287
      3 C         138.3758  138.2525  161.6795 C.3     1  UNL1        0.0193
      4 C         137.6933  139.5544  161.3807 C.3     1  UNL1        0.0700
      5 C         137.5472  140.5889  162.4569 C.3     1  UNL1        0.0193
      6 C         138.0835  140.3217  163.8321 C.3     1  UNL1        0.0287
      7 C         137.9711  139.4533  162.1493 C.3     1  UNL1        0.1562
      8 O         138.4561  139.2117  163.3926 O.3     1  UNL1       -0.3571
      9 N         137.1569  139.8216  160.0056 N.3     1  UNL1       -0.2926
     10 H         136.3459  140.4298  160.1189 H       1  UNL1        0.1236
     11 C         138.0343  140.4585  158.9691 C.3     1  UNL1        0.1152
     12 C         139.0944  141.4363  159.3819 C.ar    1  UNL1        0.0756
     13 C         140.5025  140.9681  159.6005 C.ar    1  UNL1        0.0254
     14 C         141.5625  141.9459  160.0133 C.ar    1  UNL1        0.0653
     15 C         141.2143  143.3919  160.2074 C.ar    1  UNL1        0.1646
     16 C         139.8061  143.8602  159.9887 C.ar    1  UNL1        0.1358
     17 N         138.7462  142.8823  159.5760 N.ar    1  UNL1       -0.2436
     18 O         142.4619  144.1186  160.6141 O.3     1  UNL1       -0.4611
     19 C         143.5811  143.1216  160.6713 C.3     1  UNL1        0.2681
     20 S         143.0253  141.7788  160.3000 S.3     1  UNL1       -0.0640
     21 C         139.3025  138.7526  165.5060 C.3     1  UNL1        0.0604
     22 O         138.1223  140.0808  170.3149 O.2     1  UNL1       -0.2670
     23 C         139.3645  140.7539  169.8112 C.ar    1  UNL1        0.2611
     24 C         140.1158  141.7022  170.6978 C.ar    1  UNL1        0.0623
     25 C         141.3581  142.3753  170.1941 C.ar    1  UNL1        0.0254
     26 C         141.8491  142.1000  168.8037 C.ar    1  UNL1        0.0972
     27 N         143.0423  142.6221  168.0461 N.ar    1  UNL1       -0.2400
     28 C         143.4103  142.2505  166.6402 C.ar    1  UNL1        0.1282
     29 C         142.5585  141.2833  165.8728 C.ar    1  UNL1        0.1588
     30 F         142.9265  140.9117  164.4669 F       1  UNL1       -0.2027
     31 C         141.3387  140.6878  166.5112 C.ar    1  UNL1        0.0500
     32 C         141.0978  141.1517  167.9171 C.ar    1  UNL1        0.0806
     33 N         139.8555  140.4786  168.4208 N.ar    1  UNL1       -0.2915
     34 C         139.3287  139.5987  167.3262 C.3     1  UNL1        0.1402
     35 C         140.2454  139.7280  166.1459 C.3     1  UNL1        0.1335
     36 O         140.9649  139.6533  164.8319 O.3     1  UNL1       -0.3806
     37 H         140.4959  139.0441  164.2405 H       1  UNL1        0.2108
@<TRIPOS>BOND
     1    22    23    2
     2    23    24   ar
     3    24    25   ar
     4    25    26   ar
     5    26    27   ar
     6    27    28   ar
     7    28    29   ar
     8    29    30    1
     9    29    31   ar
    10    31    32   ar
    11    32    33   ar
    12    33    34    1
    13    34    35    1
    14    35    36    1
    15    35    21    1
    16    21     1    1
    17     1     2    1
    18     2     3    1
    19     3     4    1
    20     4     9    1
    21     9    11    1
    22    11    12    1
    23    12    13   ar
    24    13    14   ar
    25    14    15   ar
    26    15    16   ar
    27    16    17   ar
    28    15    18    1
    29    18    19    1
    30    19    20    1
    31     4     5    1
    32     5     6    1
    33     4     7    1
    34     7     8    1
    35    33    23   ar
    36     6     1    1
    37    32    26   ar
    38     8     1    1
    39    35    31    1
    40    17    12   ar
    41    20    14    1
    42    36    37    1
    43     9    10    1
@<TRIPOS>MOLECULE
*****
 37 43 0 0 0
SMALL
GASTEIGER

@<TRIPOS>ATOM
      1 C         138.2888  141.6661  164.6523 C.3     1  UNL1        0.0955
      2 C         139.2089  142.5775  165.4093 C.3     1  UNL1        0.0287
      3 C         140.0604  142.0321  166.5172 C.3     1  UNL1        0.0193
      4 C         139.9919  140.5753  166.8681 C.3     1  UNL1        0.0700
      5 C         139.0719  139.6640  166.1111 C.3     1  UNL1        0.0193
      6 C         138.2203  140.2094  165.0032 C.3     1  UNL1        0.0287
      7 C         139.5061  140.8282  166.2531 C.3     1  UNL1        0.1562
      8 O         138.7362  141.3213  165.2514 O.3     1  UNL1       -0.3571
      9 N         140.8435  140.0299  167.9760 N.3     1  UNL1       -0.2926
     10 H         140.3832  139.1839  168.3119 H       1  UNL1        0.1236
     11 C         142.2753  139.6686  167.7129 C.3     1  UNL1        0.1152
     12 C         142.8328  139.7753  166.3244 C.ar    1  UNL1        0.0756
     13 C         143.5319  141.0296  165.8912 C.ar    1  UNL1        0.0254
     14 C         144.0894  141.1362  164.5027 C.ar    1  UNL1        0.0653
     15 C         143.9478  139.9884  163.5475 C.ar    1  UNL1        0.1646
     16 C         143.2486  138.7340  163.9807 C.ar    1  UNL1        0.1358
     17 N         142.6912  138.6275  165.3692 N.ar    1  UNL1       -0.2436
     18 O         144.5940  140.3811  162.2520 O.3     1  UNL1       -0.4611
     19 C         145.1350  141.7715  162.4067 C.3     1  UNL1        0.2681
     20 S         144.8232  142.2382  163.7976 S.3     1  UNL1       -0.0640
     21 C         137.4373  142.2116  163.5444 C.3     1  UNL1        0.0604
     22 O         140.3359  146.1496  162.0040 O.2     1  UNL1       -0.2670
     23 C         140.1245  145.1245  160.9295 C.ar    1  UNL1        0.2611
     24 C         140.7388  145.3200  159.5752 C.ar    1  UNL1        0.0623
     25 C         140.5274  144.2949  158.5007 C.ar    1  UNL1        0.0254
     26 C         139.7017  143.0743  158.7806 C.ar    1  UNL1        0.0972
     27 N         139.3280  141.9023  157.9105 N.ar    1  UNL1       -0.2400
     28 C         138.4825  140.7385  158.3354 C.ar    1  UNL1        0.1282
     29 C         137.9342  140.6796  159.7303 C.ar    1  UNL1        0.1588
     30 F         137.0887  139.5157  160.1553 F       1  UNL1       -0.2027
     31 C         138.2314  141.7845  160.7003 C.ar    1  UNL1        0.0500
     32 C         139.0874  142.8789  160.1349 C.ar    1  UNL1        0.0806
     33 N         139.2988  143.9039  161.2094 N.ar    1  UNL1       -0.2915
     34 C         138.5734  143.4431  162.4388 C.3     1  UNL1        0.1402
     35 C         137.9137  142.1332  162.1242 C.3     1  UNL1        0.1335
     36 O         137.1544  140.8397  162.1064 O.3     1  UNL1       -0.3806
     37 H         136.7473  140.6918  162.9744 H       1  UNL1        0.2108
@<TRIPOS>BOND
     1    22    23    2
     2    23    24   ar
     3    24    25   ar
     4    25    26   ar
     5    26    27   ar
     6    27    28   ar
     7    28    29   ar
     8    29    30    1
     9    29    31   ar
    10    31    32   ar
    11    32    33   ar
    12    33    34    1
    13    34    35    1
    14    35    36    1
    15    35    21    1
    16    21     1    1
    17     1     2    1
    18     2     3    1
    19     3     4    1
    20     4     9    1
    21     9    11    1
    22    11    12    1
    23    12    13   ar
    24    13    14   ar
    25    14    15   ar
    26    15    16   ar
    27    16    17   ar
    28    15    18    1
    29    18    19    1
    30    19    20    1
    31     4     5    1
    32     5     6    1
    33     4     7    1
    34     7     8    1
    35    33    23   ar
    36     6     1    1
    37    32    26   ar
    38     8     1    1
    39    35    31    1
    40    17    12   ar
    41    20    14    1
    42    36    37    1
    43     9    10    1
@<TRIPOS>MOLECULE
*****
 37 43 0 0 0
SMALL
GASTEIGER

@<TRIPOS>ATOM
      1 C         138.7338  139.0109  164.1209 C.3     1  UNL1        0.0955
      2 C         138.0959  140.3274  163.7891 C.3     1  UNL1        0.0287
      3 C         137.5893  140.5867  162.4013 C.3     1  UNL1        0.0193
      4 C         137.7207  139.5296  161.3452 C.3     1  UNL1        0.0700
      5 C         138.3586  138.2132  161.6770 C.3     1  UNL1        0.0193
      6 C         138.8652  137.9538  163.0649 C.3     1  UNL1        0.0287
      7 C         138.0132  139.3414  162.0916 C.3     1  UNL1        0.1562
      8 O         138.4712  139.1069  163.3465 O.3     1  UNL1       -0.3571
      9 N         137.2142  139.7890  159.9573 N.3     1  UNL1       -0.2926
     10 H         136.4065  140.4052  160.0490 H       1  UNL1        0.1236
     11 C         138.1177  140.4087  158.9329 C.3     1  UNL1        0.1152
     12 C         139.0121  139.5406  158.0983 C.ar    1  UNL1        0.0756
     13 C         140.3490  139.1134  158.6274 C.ar    1  UNL1        0.0254
     14 C         141.2434  138.2452  157.7928 C.ar    1  UNL1        0.0653
     15 C         140.8007  137.8043  156.4291 C.ar    1  UNL1        0.1646
     16 C         139.4637  138.2315  155.9001 C.ar    1  UNL1        0.1358
     17 N         138.5694  139.0996  156.7347 N.ar    1  UNL1       -0.2436
     18 O         141.8891  136.9568  155.8401 O.3     1  UNL1       -0.4611
     19 C         143.0044  136.8740  156.8396 C.3     1  UNL1        0.2681
     20 S         142.6053  137.6702  158.0465 S.3     1  UNL1       -0.0640
     21 C         139.2403  138.7515  165.5088 C.3     1  UNL1        0.0604
     22 O         138.0758  140.0493  170.3298 O.2     1  UNL1       -0.2670
     23 C         139.3199  140.7207  169.8285 C.ar    1  UNL1        0.2611
     24 C         140.0771  141.6593  170.7205 C.ar    1  UNL1        0.0623
     25 C         141.3212  142.3308  170.2191 C.ar    1  UNL1        0.0254
     26 C         141.8081  142.0637  168.8257 C.ar    1  UNL1        0.0972
     27 N         143.0020  142.5863  168.0694 N.ar    1  UNL1       -0.2400
     28 C         143.3654  142.2234  166.6601 C.ar    1  UNL1        0.1282
     29 C         142.5079  141.2656  165.8873 C.ar    1  UNL1        0.1588
     30 F         142.8714  140.9028  164.4780 F       1  UNL1       -0.2027
     31 C         141.2869  140.6705  166.5239 C.ar    1  UNL1        0.0500
     32 C         141.0509  141.1251  167.9337 C.ar    1  UNL1        0.0806
     33 N         139.8068  140.4536  168.4351 N.ar    1  UNL1       -0.2915
     34 C         139.2740  139.5841  167.3351 C.3     1  UNL1        0.1402
     35 C         140.1888  139.7181  166.1539 C.3     1  UNL1        0.1335
     36 O         140.9053  139.6501  164.8378 O.3     1  UNL1       -0.3806
     37 H         140.4324  139.0473  164.2430 H       1  UNL1        0.2108
@<TRIPOS>BOND
     1    22    23    2
     2    23    24   ar
     3    24    25   ar
     4    25    26   ar
     5    26    27   ar
     6    27    28   ar
     7    28    29   ar
     8    29    30    1
     9    29    31   ar
    10    31    32   ar
    11    32    33   ar
    12    33    34    1
    13    34    35    1
    14    35    36    1
    15    35    21    1
    16    21     1    1
    17     1     2    1
    18     2     3    1
    19     3     4    1
    20     4     9    1
    21     9    11    1
    22    11    12    1
    23    12    13   ar
    24    13    14   ar
    25    14    15   ar
    26    15    16   ar
    27    16    17   ar
    28    15    18    1
    29    18    19    1
    30    19    20    1
    31     4     5    1
    32     5     6    1
    33     4     7    1
    34     7     8    1
    35    33    23   ar
    36     6     1    1
    37    32    26   ar
    38     8     1    1
    39    35    31    1
    40    17    12   ar
    41    20    14    1
    42    36    37    1
    43     9    10    1
@<TRIPOS>MOLECULE
*****
 37 43 0 0 0
SMALL
GASTEIGER

@<TRIPOS>ATOM
      1 C         140.0169  143.6961  164.0879 C.3     1  UNL1        0.0955
      2 C         139.1097  143.7171  162.8934 C.3     1  UNL1        0.0287
      3 C         139.5667  144.3566  161.6158 C.3     1  UNL1        0.0193
      4 C         140.9307  144.9750  161.5326 C.3     1  UNL1        0.0700
      5 C         141.8378  144.9541  162.7271 C.3     1  UNL1        0.0193
      6 C         141.3809  144.3146  164.0048 C.3     1  UNL1        0.0287
      7 C         140.7244  144.6363  162.2543 C.3     1  UNL1        0.1562
      8 O         140.3113  144.0581  163.4095 O.3     1  UNL1       -0.3571
      9 N         141.3876  145.6145  160.2550 N.3     1  UNL1       -0.2926
     10 H         142.2692  146.0848  160.4600 H       1  UNL1        0.1236
     11 C         141.6195  144.7720  159.0358 C.3     1  UNL1        0.1152
     12 C         142.2603  143.4222  159.1677 C.ar    1  UNL1        0.0756
     13 C         141.5601  142.2048  158.6408 C.ar    1  UNL1        0.0254
     14 C         142.2010  140.8550  158.7727 C.ar    1  UNL1        0.0653
     15 C         143.5420  140.7226  159.4315 C.ar    1  UNL1        0.1646
     16 C         144.2422  141.9400  159.9584 C.ar    1  UNL1        0.1358
     17 N         143.6013  143.2898  159.8265 N.ar    1  UNL1       -0.2436
     18 O         143.9238  139.2721  159.4182 O.3     1  UNL1       -0.4611
     19 C         142.8187  138.5081  158.7511 C.3     1  UNL1        0.2681
     20 S         141.7540  139.4863  158.3522 S.3     1  UNL1       -0.0640
     21 C         139.5599  143.0567  165.3655 C.3     1  UNL1        0.0604
     22 O         140.7495  144.3184  170.1900 O.2     1  UNL1       -0.2670
     23 C         141.3698  143.0238  169.7549 C.ar    1  UNL1        0.2611
     24 C         142.2343  142.2497  170.7053 C.ar    1  UNL1        0.0623
     25 C         142.8546  140.9551  170.2702 C.ar    1  UNL1        0.0254
     26 C         142.6104  140.4347  168.8848 C.ar    1  UNL1        0.0972
     27 N         143.0937  139.1892  168.1880 N.ar    1  UNL1       -0.2400
     28 C         142.7612  138.7965  166.7790 C.ar    1  UNL1        0.1282
     29 C         141.8788  139.6759  165.9437 C.ar    1  UNL1        0.1588
     30 F         141.5463  139.2832  164.5348 F       1  UNL1       -0.2027
     31 C         141.3288  140.9481  166.5174 C.ar    1  UNL1        0.0500
     32 C         141.7459  141.2088  167.9344 C.ar    1  UNL1        0.0806
     33 N         141.1256  142.5034  168.3695 N.ar    1  UNL1       -0.2915
     34 C         140.3251  143.0428  167.2213 C.3     1  UNL1        0.1402
     35 C         140.4507  142.0816  166.0766 C.3     1  UNL1        0.1335
     36 O         140.3900  141.3242  164.7833 O.3     1  UNL1       -0.3806
     37 H         139.8348  141.8072  164.1515 H       1  UNL1        0.2108
@<TRIPOS>BOND
     1    22    23    2
     2    23    24   ar
     3    24    25   ar
     4    25    26   ar
     5    26    27   ar
     6    27    28   ar
     7    28    29   ar
     8    29    30    1
     9    29    31   ar
    10    31    32   ar
    11    32    33   ar
    12    33    34    1
    13    34    35    1
    14    35    36    1
    15    35    21    1
    16    21     1    1
    17     1     2    1
    18     2     3    1
    19     3     4    1
    20     4     9    1
    21     9    11    1
    22    11    12    1
    23    12    13   ar
    24    13    14   ar
    25    14    15   ar
    26    15    16   ar
    27    16    17   ar
    28    15    18    1
    29    18    19    1
    30    19    20    1
    31     4     5    1
    32     5     6    1
    33     4     7    1
    34     7     8    1
    35    33    23   ar
    36     6     1    1
    37    32    26   ar
    38     8     1    1
    39    35    31    1
    40    17    12   ar
    41    20    14    1
    42    36    37    1
    43     9    10    1
@<TRIPOS>MOLECULE
*****
 37 43 0 0 0
SMALL
GASTEIGER

@<TRIPOS>ATOM
      1 C         143.8764  140.0953  159.8455 C.3     1  UNL1        0.0955
      2 C         144.2378  141.4247  160.4390 C.3     1  UNL1        0.0287
      3 C         144.1138  142.6723  159.6156 C.3     1  UNL1        0.0193
      4 C         143.6284  142.5907  158.1987 C.3     1  UNL1        0.0700
      5 C         143.2670  141.2614  157.6052 C.3     1  UNL1        0.0193
      6 C         143.3910  140.0136  158.4285 C.3     1  UNL1        0.0287
      7 C         143.6799  141.8796  158.6108 C.3     1  UNL1        0.1562
      8 O         143.7920  140.7515  159.3553 O.3     1  UNL1       -0.3571
      9 N         143.5043  143.8383  157.3753 N.3     1  UNL1       -0.2926
     10 H         143.6088  143.5590  156.3999 H       1  UNL1        0.1236
     11 C         142.2585  144.6697  157.4566 C.3     1  UNL1        0.1152
     12 C         141.2400  144.3925  158.5224 C.ar    1  UNL1        0.0756
     13 C         141.2080  145.2311  159.7657 C.ar    1  UNL1        0.0254
     14 C         140.1895  144.9538  160.8314 C.ar    1  UNL1        0.0653
     15 C         139.2030  143.8379  160.6539 C.ar    1  UNL1        0.1646
     16 C         139.2350  142.9993  159.4107 C.ar    1  UNL1        0.1358
     17 N         140.2535  143.2766  158.3449 N.ar    1  UNL1       -0.2436
     18 O         138.3214  143.8013  161.8669 O.3     1  UNL1       -0.4611
     19 C         138.7631  144.8946  162.7940 C.3     1  UNL1        0.2681
     20 S         139.9176  145.6069  162.1541 S.3     1  UNL1       -0.0640
     21 C         144.0004  138.8476  160.6689 C.3     1  UNL1        0.0604
     22 O         138.9856  137.8242  160.9638 O.2     1  UNL1       -0.2670
     23 C         139.6198  138.0297  162.3075 C.ar    1  UNL1        0.2611
     24 C         138.7896  137.9262  163.5525 C.ar    1  UNL1        0.0623
     25 C         139.4238  138.1318  164.8962 C.ar    1  UNL1        0.0254
     26 C         140.8882  138.4409  164.9949 C.ar    1  UNL1        0.0972
     27 N         141.7764  138.6907  166.1862 N.ar    1  UNL1       -0.2400
     28 C         143.2447  138.9920  166.1282 C.ar    1  UNL1        0.1282
     29 C         143.9437  139.0638  164.8030 C.ar    1  UNL1        0.1588
     30 F         145.4120  139.3651  164.7450 F       1  UNL1       -0.2027
     31 C         143.1745  138.8345  163.5358 C.ar    1  UNL1        0.0500
     32 C         141.7185  138.5444  163.7500 C.ar    1  UNL1        0.0806
     33 N         141.0843  138.3388  162.4063 N.ar    1  UNL1       -0.2915
     34 C         142.1484  138.5018  161.3617 C.3     1  UNL1        0.1402
     35 C         143.4402  138.8082  162.0598 C.3     1  UNL1        0.1335
     36 O         144.8492  139.1228  162.4671 O.3     1  UNL1       -0.3806
     37 H         145.4060  139.1946  161.6761 H       1  UNL1        0.2108
@<TRIPOS>BOND
     1    22    23    2
     2    23    24   ar
     3    24    25   ar
     4    25    26   ar
     5    26    27   ar
     6    27    28   ar
     7    28    29   ar
     8    29    30    1
     9    29    31   ar
    10    31    32   ar
    11    32    33   ar
    12    33    34    1
    13    34    35    1
    14    35    36    1
    15    35    21    1
    16    21     1    1
    17     1     2    1
    18     2     3    1
    19     3     4    1
    20     4     9    1
    21     9    11    1
    22    11    12    1
    23    12    13   ar
    24    13    14   ar
    25    14    15   ar
    26    15    16   ar
    27    16    17   ar
    28    15    18    1
    29    18    19    1
    30    19    20    1
    31     4     5    1
    32     5     6    1
    33     4     7    1
    34     7     8    1
    35    33    23   ar
    36     6     1    1
    37    32    26   ar
    38     8     1    1
    39    35    31    1
    40    17    12   ar
    41    20    14    1
    42    36    37    1
    43     9    10    1
@<TRIPOS>MOLECULE
*****
 37 43 0 0 0
SMALL
GASTEIGER

@<TRIPOS>ATOM
      1 C         144.3043  140.7362  162.5572 C.3     1  UNL1        0.0955
      2 C         144.7722  142.1579  162.4563 C.3     1  UNL1        0.0287
      3 C         144.7342  142.8680  161.1356 C.3     1  UNL1        0.0193
      4 C         144.2284  142.1566  159.9158 C.3     1  UNL1        0.0700
      5 C         143.7606  140.7350  160.0167 C.3     1  UNL1        0.0193
      6 C         143.7985  140.0248  161.3374 C.3     1  UNL1        0.0287
      7 C         144.2303  141.7260  160.6177 C.3     1  UNL1        0.1562
      8 O         144.2646  141.0839  161.8119 O.3     1  UNL1       -0.3571
      9 N         144.1905  142.8667  158.5950 N.3     1  UNL1       -0.2926
     10 H         144.2862  142.1521  157.8736 H       1  UNL1        0.1236
     11 C         142.9985  143.6987  158.2249 C.3     1  UNL1        0.1152
     12 C         141.7567  143.6453  159.0647 C.ar    1  UNL1        0.0756
     13 C         141.5790  144.6062  160.2027 C.ar    1  UNL1        0.0254
     14 C         140.3372  144.5528  161.0424 C.ar    1  UNL1        0.0653
     15 C         139.2731  143.5386  160.7441 C.ar    1  UNL1        0.1646
     16 C         139.4508  142.5777  159.6060 C.ar    1  UNL1        0.1358
     17 N         140.6926  142.6311  158.7663 N.ar    1  UNL1       -0.2436
     18 O         138.1649  143.7234  161.7378 O.3     1  UNL1       -0.4611
     19 C         138.5441  144.8519  162.6504 C.3     1  UNL1        0.2681
     20 S         139.8866  145.3645  162.2206 S.3     1  UNL1       -0.0640
     21 C         144.3423  140.0261  163.8779 C.3     1  UNL1        0.0604
     22 O         140.3161  136.9623  163.0498 O.2     1  UNL1       -0.2670
     23 C         140.1316  137.8616  164.2361 C.ar    1  UNL1        0.2611
     24 C         138.8641  137.7977  165.0357 C.ar    1  UNL1        0.0623
     25 C         138.6795  138.6970  166.2219 C.ar    1  UNL1        0.0254
     26 C         139.7624  139.6602  166.6085 C.ar    1  UNL1        0.0972
     27 N         139.8507  140.6638  167.7290 N.ar    1  UNL1       -0.2400
     28 C         141.0153  141.5714  167.9937 C.ar    1  UNL1        0.1282
     29 C         142.2216  141.5225  167.1035 C.ar    1  UNL1        0.1588
     30 F         143.3862  142.4301  167.3681 F       1  UNL1       -0.2027
     31 C         142.2634  140.5661  165.9487 C.ar    1  UNL1        0.0500
     32 C         141.0298  139.7242  165.8089 C.ar    1  UNL1        0.0806
     33 N         141.2144  138.8249  164.6227 N.ar    1  UNL1       -0.2915
     34 C         142.5620  139.1110  164.0294 C.3     1  UNL1        0.1402
     35 C         143.2103  140.1872  164.8488 C.3     1  UNL1        0.1335
     36 O         144.0952  141.2297  165.4654 O.3     1  UNL1       -0.3806
     37 H         144.9232  141.2888  164.9635 H       1  UNL1        0.2108
@<TRIPOS>BOND
     1    22    23    2
     2    23    24   ar
     3    24    25   ar
     4    25    26   ar
     5    26    27   ar
     6    27    28   ar
     7    28    29   ar
     8    29    30    1
     9    29    31   ar
    10    31    32   ar
    11    32    33   ar
    12    33    34    1
    13    34    35    1
    14    35    36    1
    15    35    21    1
    16    21     1    1
    17     1     2    1
    18     2     3    1
    19     3     4    1
    20     4     9    1
    21     9    11    1
    22    11    12    1
    23    12    13   ar
    24    13    14   ar
    25    14    15   ar
    26    15    16   ar
    27    16    17   ar
    28    15    18    1
    29    18    19    1
    30    19    20    1
    31     4     5    1
    32     5     6    1
    33     4     7    1
    34     7     8    1
    35    33    23   ar
    36     6     1    1
    37    32    26   ar
    38     8     1    1
    39    35    31    1
    40    17    12   ar
    41    20    14    1
    42    36    37    1
    43     9    10    1
