@<TRIPOS>MOLECULE
*****
 27 30 0 0 0
SMALL
GASTEIGER

@<TRIPOS>ATOM
      1 N         139.9962  138.0505  162.3903 N.3     1  UNL1       -0.2722
      2 C         139.5691  137.8152  163.8088 C.3     1  UNL1        0.0754
      3 C         140.5758  137.8935  164.9181 C.3     1  UNL1        0.0543
      4 C         142.0096  138.2072  164.6088 C.3     1  UNL1        0.1331
      5 C         142.4368  138.4426  163.1903 C.3     1  UNL1        0.0543
      6 C         141.4301  138.3643  162.0811 C.3     1  UNL1        0.0754
      7 N         143.0163  138.2856  165.7180 N.pl3   1  UNL1       -0.2232
      8 H         143.8088  137.7016  165.7057 H       1  UNL1        0.2454
      9 C         142.8156  139.2537  166.8460 C.cat   1  UNL1        0.4199
     10 N         142.4414  140.7000  166.7106 N.2     1  UNL1       -0.0679
     11 C         142.3484  141.2857  168.0884 C.2     1  UNL1        0.1887
     12 C         142.0162  142.6663  168.5718 C.2     1  UNL1        0.0395
     13 C         142.0007  142.9626  170.0421 C.2     1  UNL1       -0.0010
     14 C         142.3175  141.8783  171.0291 C.2     1  UNL1       -0.0181
     15 C         142.6496  140.4978  170.5457 C.3     1  UNL1        0.0932
     16 C         142.6651  140.2015  169.0754 C.2     1  UNL1        0.1744
     17 N         142.9539  138.9457  168.3075 N.2     1  UNL1       -0.0718
     18 C         138.9895  137.9722  161.2810 C.3     1  UNL1        0.0768
     19 C         137.7431  138.8046  161.3392 C.3     1  UNL1        0.0437
     20 C         138.0183  143.2094  162.2180 C.ar    1  UNL1        0.1387
     21 C         138.4026  142.6892  160.8646 C.ar    1  UNL1        0.0366
     22 C         138.3108  141.2210  160.5716 C.ar    1  UNL1       -0.0011
     23 C         137.8348  140.2728  161.6321 C.ar    1  UNL1       -0.0206
     24 C         137.4506  140.7930  162.9856 C.ar    1  UNL1       -0.0011
     25 C         137.5424  142.2613  163.2785 C.ar    1  UNL1        0.0366
     26 C         139.4143  145.3974  162.3353 C.3     1  UNL1        0.2525
     27 O         138.1101  144.6776  162.5110 O.3     1  UNL1       -0.4714
@<TRIPOS>BOND
     1    26    27    1
     2    27    20    1
     3    20    21   ar
     4    21    22   ar
     5    22    23   ar
     6    23    19    1
     7    19    18    1
     8    18     1    1
     9     1     2    1
    10     2     3    1
    11     3     4    1
    12     4     7    1
    13     7     9    1
    14     9    10    2
    15    10    11    1
    16    11    12    2
    17    12    13    1
    18    13    14    2
    19    14    15    1
    20    15    16    1
    21    16    17    2
    22     4     5    1
    23     5     6    1
    24    23    24   ar
    25    24    25   ar
    26    25    20   ar
    27     6     1    1
    28    17     9    1
    29    16    11    1
    30     7     8    1
@<TRIPOS>MOLECULE
*****
 27 30 0 0 0
SMALL
GASTEIGER

@<TRIPOS>ATOM
      1 N         139.9173  138.0191  162.3554 N.3     1  UNL1       -0.2722
      2 C         139.4682  137.7667  163.7641 C.3     1  UNL1        0.0754
      3 C         140.4600  137.8190  164.8883 C.3     1  UNL1        0.0543
      4 C         141.9009  138.1238  164.6037 C.3     1  UNL1        0.1331
      5 C         142.3500  138.3763  163.1948 C.3     1  UNL1        0.0543
      6 C         141.3582  138.3239  162.0708 C.3     1  UNL1        0.0754
      7 N         142.8927  138.1762  165.7277 N.pl3   1  UNL1       -0.2232
      8 H         143.6578  137.5568  165.7383 H       1  UNL1        0.2454
      9 C         142.7187  139.1723  166.8357 C.cat   1  UNL1        0.4199
     10 N         143.0094  138.9354  168.2880 N.2     1  UNL1       -0.0679
     11 C         142.6938  140.1969  169.0357 C.2     1  UNL1        0.1887
     12 C         142.7860  140.5512  170.4903 C.2     1  UNL1        0.0395
     13 C         142.3925  141.9221  170.9547 C.2     1  UNL1       -0.0010
     14 C         141.9067  142.9387  169.9644 C.2     1  UNL1       -0.0181
     15 C         141.8145  142.5844  168.5098 C.3     1  UNL1        0.0932
     16 C         142.2081  141.2135  168.0455 C.2     1  UNL1        0.1744
     17 N         142.2234  140.5802  166.6858 N.2     1  UNL1       -0.0718
     18 C         138.9255  137.9668  161.2312 C.3     1  UNL1        0.0768
     19 C         137.6892  138.8146  161.2817 C.3     1  UNL1        0.0437
     20 C         138.0105  143.2088  162.1970 C.ar    1  UNL1        0.1387
     21 C         138.3780  142.6975  160.8356 C.ar    1  UNL1        0.0366
     22 C         138.2709  141.2328  160.5304 C.ar    1  UNL1       -0.0011
     23 C         137.7963  140.2793  161.5868 C.ar    1  UNL1       -0.0206
     24 C         137.4289  140.7907  162.9483 C.ar    1  UNL1       -0.0011
     25 C         137.5360  142.2555  163.2533 C.ar    1  UNL1        0.0366
     26 C         139.4202  145.3889  162.2979 C.3     1  UNL1        0.2525
     27 O         138.1176  144.6735  162.5021 O.3     1  UNL1       -0.4714
@<TRIPOS>BOND
     1    26    27    1
     2    27    20    1
     3    20    21   ar
     4    21    22   ar
     5    22    23   ar
     6    23    19    1
     7    19    18    1
     8    18     1    1
     9     1     2    1
    10     2     3    1
    11     3     4    1
    12     4     7    1
    13     7     9    1
    14     9    10    2
    15    10    11    1
    16    11    12    2
    17    12    13    1
    18    13    14    2
    19    14    15    1
    20    15    16    1
    21    16    17    2
    22     4     5    1
    23     5     6    1
    24    23    24   ar
    25    24    25   ar
    26    25    20   ar
    27     6     1    1
    28    17     9    1
    29    16    11    1
    30     7     8    1
@<TRIPOS>MOLECULE
*****
 27 30 0 0 0
SMALL
GASTEIGER

@<TRIPOS>ATOM
      1 N         138.8215  138.5294  162.6480 N.3     1  UNL1       -0.2722
      2 C         138.3046  139.8389  163.1657 C.3     1  UNL1        0.0754
      3 C         138.1011  140.0353  164.6388 C.3     1  UNL1        0.0543
      4 C         138.4145  138.9222  165.5942 C.3     1  UNL1        0.1331
      5 C         138.9314  137.6127  165.0764 C.3     1  UNL1        0.0543
      6 C         139.1349  137.4163  163.6034 C.3     1  UNL1        0.0754
      7 N         138.2110  139.1185  167.0673 N.pl3   1  UNL1       -0.2232
      8 H         137.4131  138.7464  167.5079 H       1  UNL1        0.2454
      9 C         139.2231  139.8819  167.8691 C.cat   1  UNL1        0.4199
     10 N         139.3183  139.9164  169.3656 N.2     1  UNL1       -0.0679
     11 C         140.4718  140.8006  169.7366 C.2     1  UNL1        0.1887
     12 C         141.0394  141.2057  171.0646 C.2     1  UNL1        0.0395
     13 C         142.2248  142.1228  171.1252 C.2     1  UNL1       -0.0010
     14 C         142.8425  142.6350  169.8579 C.2     1  UNL1       -0.0181
     15 C         142.2748  142.2299  168.5298 C.3     1  UNL1        0.0932
     16 C         141.0895  141.3128  168.4692 C.2     1  UNL1        0.1744
     17 N         140.3177  140.7450  167.3150 N.2     1  UNL1       -0.0718
     18 C         139.0250  138.3330  161.1749 C.3     1  UNL1        0.0768
     19 C         140.2069  138.9544  160.4916 C.3     1  UNL1        0.0437
     20 C         143.9666  139.7922  162.8180 C.ar    1  UNL1        0.1387
     21 C         143.5902  138.3790  162.4845 C.ar    1  UNL1        0.0366
     22 C         142.3370  138.0998  161.7091 C.ar    1  UNL1       -0.0011
     23 C         141.4601  139.2337  161.2670 C.ar    1  UNL1       -0.0206
     24 C         141.8365  140.6469  161.6005 C.ar    1  UNL1       -0.0011
     25 C         143.0898  140.9261  162.3760 C.ar    1  UNL1        0.0366
     26 C         145.5938  141.4844  163.9311 C.3     1  UNL1        0.2525
     27 O         145.2199  140.0715  163.5935 O.3     1  UNL1       -0.4714
@<TRIPOS>BOND
     1    26    27    1
     2    27    20    1
     3    20    21   ar
     4    21    22   ar
     5    22    23   ar
     6    23    19    1
     7    19    18    1
     8    18     1    1
     9     1     2    1
    10     2     3    1
    11     3     4    1
    12     4     7    1
    13     7     9    1
    14     9    10    2
    15    10    11    1
    16    11    12    2
    17    12    13    1
    18    13    14    2
    19    14    15    1
    20    15    16    1
    21    16    17    2
    22     4     5    1
    23     5     6    1
    24    23    24   ar
    25    24    25   ar
    26    25    20   ar
    27     6     1    1
    28    17     9    1
    29    16    11    1
    30     7     8    1
@<TRIPOS>MOLECULE
*****
 27 30 0 0 0
SMALL
GASTEIGER

@<TRIPOS>ATOM
      1 N         144.2530  141.1814  161.8469 N.3     1  UNL1       -0.2722
      2 C         145.1228  141.4751  163.0331 C.3     1  UNL1        0.0754
      3 C         145.0062  140.6400  164.2738 C.3     1  UNL1        0.0543
      4 C         144.0198  139.5112  164.3281 C.3     1  UNL1        0.1331
      5 C         143.1499  139.2176  163.1418 C.3     1  UNL1        0.0543
      6 C         143.2666  140.0527  161.9012 C.3     1  UNL1        0.0754
      7 N         143.9031  138.6762  165.5686 N.pl3   1  UNL1       -0.2232
      8 H         144.4711  137.8799  165.6812 H       1  UNL1        0.2454
      9 C         142.9212  139.0542  166.6377 C.cat   1  UNL1        0.4199
     10 N         141.5239  139.5523  166.4152 N.2     1  UNL1       -0.0679
     11 C         140.9033  139.8066  167.7570 C.2     1  UNL1        0.1887
     12 C         139.5461  140.3045  168.1569 C.2     1  UNL1        0.0395
     13 C         139.2026  140.4614  169.6086 C.2     1  UNL1       -0.0010
     14 C         140.2163  140.1204  170.6603 C.2     1  UNL1       -0.0181
     15 C         141.5735  139.6225  170.2603 C.3     1  UNL1        0.0932
     16 C         141.9170  139.4656  168.8087 C.2     1  UNL1        0.1744
     17 N         143.1641  139.0006  168.1169 N.2     1  UNL1       -0.0718
     18 C         144.3696  142.0165  160.6063 C.3     1  UNL1        0.0768
     19 C         143.4386  143.1725  160.3901 C.3     1  UNL1        0.0437
     20 C         140.6006  144.4165  163.6533 C.ar    1  UNL1        0.1387
     21 C         140.1464  143.4643  162.5869 C.ar    1  UNL1        0.0366
     22 C         141.0923  143.0496  161.4992 C.ar    1  UNL1       -0.0011
     23 C         142.4926  143.5872  161.4778 C.ar    1  UNL1       -0.0206
     24 C         142.9468  144.5394  162.5441 C.ar    1  UNL1       -0.0011
     25 C         142.0008  144.9540  163.6319 C.ar    1  UNL1        0.0366
     26 C         138.2239  144.3819  164.7023 C.3     1  UNL1        0.2525
     27 O         139.6546  144.8311  164.7410 O.3     1  UNL1       -0.4714
@<TRIPOS>BOND
     1    26    27    1
     2    27    20    1
     3    20    21   ar
     4    21    22   ar
     5    22    23   ar
     6    23    19    1
     7    19    18    1
     8    18     1    1
     9     1     2    1
    10     2     3    1
    11     3     4    1
    12     4     7    1
    13     7     9    1
    14     9    10    2
    15    10    11    1
    16    11    12    2
    17    12    13    1
    18    13    14    2
    19    14    15    1
    20    15    16    1
    21    16    17    2
    22     4     5    1
    23     5     6    1
    24    23    24   ar
    25    24    25   ar
    26    25    20   ar
    27     6     1    1
    28    17     9    1
    29    16    11    1
    30     7     8    1
@<TRIPOS>MOLECULE
*****
 27 30 0 0 0
SMALL
GASTEIGER

@<TRIPOS>ATOM
      1 N         138.3551  141.6739  161.9941 N.3     1  UNL1       -0.2722
      2 C         138.6792  140.2098  162.0306 C.3     1  UNL1        0.0754
      3 C         138.6305  139.4630  163.3306 C.3     1  UNL1        0.0543
      4 C         138.2578  140.1804  164.5941 C.3     1  UNL1        0.1331
      5 C         137.9337  141.6446  164.5575 C.3     1  UNL1        0.0543
      6 C         137.9823  142.3913  163.2575 C.3     1  UNL1        0.0754
      7 N         138.2091  139.4337  165.8941 N.pl3   1  UNL1       -0.2232
      8 H         137.5158  138.7510  166.0440 H       1  UNL1        0.2454
      9 C         139.2168  139.7272  166.9658 C.cat   1  UNL1        0.4199
     10 N         140.6609  140.0693  166.7483 N.2     1  UNL1       -0.0679
     11 C         141.2939  140.2837  168.0912 C.2     1  UNL1        0.1887
     12 C         142.6930  140.6427  168.4955 C.2     1  UNL1        0.0395
     13 C         143.0392  140.7920  169.9474 C.2     1  UNL1       -0.0010
     14 C         141.9862  140.5824  170.9949 C.2     1  UNL1       -0.0181
     15 C         140.5870  140.2234  170.5905 C.3     1  UNL1        0.0932
     16 C         140.2409  140.0740  169.1387 C.2     1  UNL1        0.1744
     17 N         138.9572  139.7301  168.4431 N.2     1  UNL1       -0.0718
     18 C         138.4038  142.4206  160.6940 C.3     1  UNL1        0.0768
     19 C         139.4549  143.4667  160.4689 C.3     1  UNL1        0.0437
     20 C         143.4215  143.1596  162.5716 C.ar    1  UNL1        0.1387
     21 C         142.4812  144.2799  162.9041 C.ar    1  UNL1        0.0366
     22 C         141.1590  144.3823  162.2033 C.ar    1  UNL1       -0.0011
     23 C         140.7771  143.3643  161.1697 C.ar    1  UNL1       -0.0206
     24 C         141.7175  142.2440  160.8372 C.ar    1  UNL1       -0.0011
     25 C         143.0397  142.1417  161.5381 C.ar    1  UNL1        0.0366
     26 C         145.5464  141.7934  163.1787 C.3     1  UNL1        0.2525
     27 O         144.7437  143.0572  163.2724 O.3     1  UNL1       -0.4714
@<TRIPOS>BOND
     1    26    27    1
     2    27    20    1
     3    20    21   ar
     4    21    22   ar
     5    22    23   ar
     6    23    19    1
     7    19    18    1
     8    18     1    1
     9     1     2    1
    10     2     3    1
    11     3     4    1
    12     4     7    1
    13     7     9    1
    14     9    10    2
    15    10    11    1
    16    11    12    2
    17    12    13    1
    18    13    14    2
    19    14    15    1
    20    15    16    1
    21    16    17    2
    22     4     5    1
    23     5     6    1
    24    23    24   ar
    25    24    25   ar
    26    25    20   ar
    27     6     1    1
    28    17     9    1
    29    16    11    1
    30     7     8    1
@<TRIPOS>MOLECULE
*****
 27 30 0 0 0
SMALL
GASTEIGER

@<TRIPOS>ATOM
      1 N         141.3312  137.8106  161.7383 N.3     1  UNL1       -0.2722
      2 C         141.9069  137.5257  163.0938 C.3     1  UNL1        0.0754
      3 C         141.0563  137.6866  164.3189 C.3     1  UNL1        0.0543
      4 C         139.6300  138.1324  164.1883 C.3     1  UNL1        0.1331
      5 C         139.0543  138.4173  162.8328 C.3     1  UNL1        0.0543
      6 C         139.9049  138.2564  161.6078 C.3     1  UNL1        0.0754
      7 N         138.7794  138.2933  165.4133 N.pl3   1  UNL1       -0.2232
      8 H         137.9886  137.7212  165.5421 H       1  UNL1        0.2454
      9 C         139.1337  139.3259  166.4421 C.cat   1  UNL1        0.4199
     10 N         138.8142  139.2578  167.9060 N.2     1  UNL1       -0.0679
     11 C         139.3527  140.4976  168.5563 C.2     1  UNL1        0.1887
     12 C         139.3334  140.9746  169.9782 C.2     1  UNL1        0.0395
     13 C         139.9664  142.2860  170.3380 C.2     1  UNL1       -0.0010
     14 C         140.6187  143.1204  169.2759 C.2     1  UNL1       -0.0181
     15 C         140.6381  142.6434  167.8539 C.3     1  UNL1        0.0932
     16 C         140.0051  141.3320  167.4941 C.2     1  UNL1        0.1744
     17 N         139.8697  140.6078  166.1875 N.2     1  UNL1       -0.0718
     18 C         142.1817  137.6496  160.5133 C.3     1  UNL1        0.0768
     19 C         143.4419  138.4495  160.3648 C.3     1  UNL1        0.0437
     20 C         143.7071  142.5790  162.1331 C.ar    1  UNL1        0.1387
     21 C         142.8859  142.3423  160.9004 C.ar    1  UNL1        0.0366
     22 C         142.7975  140.9658  160.3110 C.ar    1  UNL1       -0.0011
     23 C         143.5303  139.8260  160.9542 C.ar    1  UNL1       -0.0206
     24 C         144.3516  140.0627  162.1869 C.ar    1  UNL1       -0.0011
     25 C         144.4400  141.4393  162.7764 C.ar    1  UNL1        0.0366
     26 C         142.5440  144.7347  162.9992 C.3     1  UNL1        0.2525
     27 O         143.7955  143.9555  162.7225 O.3     1  UNL1       -0.4714
@<TRIPOS>BOND
     1    26    27    1
     2    27    20    1
     3    20    21   ar
     4    21    22   ar
     5    22    23   ar
     6    23    19    1
     7    19    18    1
     8    18     1    1
     9     1     2    1
    10     2     3    1
    11     3     4    1
    12     4     7    1
    13     7     9    1
    14     9    10    2
    15    10    11    1
    16    11    12    2
    17    12    13    1
    18    13    14    2
    19    14    15    1
    20    15    16    1
    21    16    17    2
    22     4     5    1
    23     5     6    1
    24    23    24   ar
    25    24    25   ar
    26    25    20   ar
    27     6     1    1
    28    17     9    1
    29    16    11    1
    30     7     8    1
@<TRIPOS>MOLECULE
*****
 27 30 0 0 0
SMALL
GASTEIGER

@<TRIPOS>ATOM
      1 N         143.0402  141.0761  166.4777 N.3     1  UNL1       -0.2722
      2 C         143.5291  141.8894  165.3160 C.3     1  UNL1        0.0754
      3 C         144.0219  141.2048  164.0756 C.3     1  UNL1        0.0543
      4 C         144.0258  139.7069  163.9969 C.3     1  UNL1        0.1331
      5 C         143.5369  138.8936  165.1586 C.3     1  UNL1        0.0543
      6 C         143.0441  139.5781  166.3989 C.3     1  UNL1        0.0754
      7 N         144.5185  139.0223  162.7565 N.pl3   1  UNL1       -0.2232
      8 H         145.4357  138.6662  162.7221 H       1  UNL1        0.2454
      9 C         143.6138  138.8803  161.5685 C.cat   1  UNL1        0.4199
     10 N         144.0468  138.8086  160.1341 N.2     1  UNL1       -0.0679
     11 C         142.8179  138.6690  159.2854 C.2     1  UNL1        0.1887
     12 C         142.6307  138.5533  157.8017 C.2     1  UNL1        0.0395
     13 C         141.2510  138.4230  157.2278 C.2     1  UNL1       -0.0010
     14 C         140.0585  138.4085  158.1376 C.2     1  UNL1       -0.0181
     15 C         140.2457  138.5242  159.6213 C.3     1  UNL1        0.0932
     16 C         141.6254  138.6545  160.1952 C.2     1  UNL1        0.1744
     17 N         142.1173  138.7851  161.6062 N.2     1  UNL1       -0.0718
     18 C         142.5475  141.7606  167.7181 C.3     1  UNL1        0.0768
     19 C         141.0771  141.9756  167.9223 C.3     1  UNL1        0.0437
     20 C         138.2466  141.6196  164.4422 C.ar    1  UNL1        0.1387
     21 C         138.4918  140.4382  165.3333 C.ar    1  UNL1        0.0366
     22 C         139.4353  140.5569  166.4933 C.ar    1  UNL1       -0.0011
     23 C         140.1336  141.8569  166.7623 C.ar    1  UNL1       -0.0206
     24 C         139.8883  143.0383  165.8711 C.ar    1  UNL1       -0.0011
     25 C         138.9448  142.9196  164.7110 C.ar    1  UNL1        0.0366
     26 C         137.7062  140.7240  162.0639 C.3     1  UNL1        0.2525
     27 O         137.3031  141.5009  163.2821 O.3     1  UNL1       -0.4714
@<TRIPOS>BOND
     1    26    27    1
     2    27    20    1
     3    20    21   ar
     4    21    22   ar
     5    22    23   ar
     6    23    19    1
     7    19    18    1
     8    18     1    1
     9     1     2    1
    10     2     3    1
    11     3     4    1
    12     4     7    1
    13     7     9    1
    14     9    10    2
    15    10    11    1
    16    11    12    2
    17    12    13    1
    18    13    14    2
    19    14    15    1
    20    15    16    1
    21    16    17    2
    22     4     5    1
    23     5     6    1
    24    23    24   ar
    25    24    25   ar
    26    25    20   ar
    27     6     1    1
    28    17     9    1
    29    16    11    1
    30     7     8    1
@<TRIPOS>MOLECULE
*****
 27 30 0 0 0
SMALL
GASTEIGER

@<TRIPOS>ATOM
      1 N         138.4463  140.6322  165.2267 N.3     1  UNL1       -0.2722
      2 C         137.6518  141.1406  164.0604 C.3     1  UNL1        0.0754
      3 C         138.0136  142.4474  163.4189 C.3     1  UNL1        0.0543
      4 C         139.1700  143.2457  163.9437 C.3     1  UNL1        0.1331
      5 C         139.9646  142.7373  165.1100 C.3     1  UNL1        0.0543
      6 C         139.6027  141.4305  165.7515 C.3     1  UNL1        0.0754
      7 N         139.5319  144.5524  163.3022 N.pl3   1  UNL1       -0.2232
      8 H         139.3482  145.3985  163.7710 H       1  UNL1        0.2454
      9 C         140.1737  144.5702  161.9466 C.cat   1  UNL1        0.4199
     10 N         141.2971  143.6866  161.4913 N.2     1  UNL1       -0.0679
     11 C         141.6225  144.0449  160.0716 C.2     1  UNL1        0.1887
     12 C         142.6395  143.5078  159.1087 C.2     1  UNL1        0.0395
     13 C         142.7341  144.0757  157.7236 C.2     1  UNL1       -0.0010
     14 C         141.8118  145.1807  157.3014 C.2     1  UNL1       -0.0181
     15 C         140.7949  145.7178  158.2643 C.3     1  UNL1        0.0932
     16 C         140.7002  145.1500  159.6493 C.2     1  UNL1        0.1744
     17 N         139.8048  145.4746  160.8082 N.2     1  UNL1       -0.0718
     18 C         138.0845  139.3254  165.8682 C.3     1  UNL1        0.0768
     19 C         138.8172  138.0738  165.4855 C.3     1  UNL1        0.0437
     20 C         141.2622  137.9633  161.7093 C.ar    1  UNL1        0.1387
     21 C         139.7643  137.9332  161.6342 C.ar    1  UNL1        0.0366
     22 C         138.9494  137.9701  162.8929 C.ar    1  UNL1       -0.0011
     23 C         139.6322  138.0370  164.2268 C.ar    1  UNL1       -0.0206
     24 C         141.1300  138.0670  164.3020 C.ar    1  UNL1       -0.0011
     25 C         141.9450  138.0302  163.0432 C.ar    1  UNL1        0.0366
     26 C         141.8546  138.9560  159.3826 C.3     1  UNL1        0.2525
     27 O         142.0772  137.9265  160.4506 O.3     1  UNL1       -0.4714
@<TRIPOS>BOND
     1    26    27    1
     2    27    20    1
     3    20    21   ar
     4    21    22   ar
     5    22    23   ar
     6    23    19    1
     7    19    18    1
     8    18     1    1
     9     1     2    1
    10     2     3    1
    11     3     4    1
    12     4     7    1
    13     7     9    1
    14     9    10    2
    15    10    11    1
    16    11    12    2
    17    12    13    1
    18    13    14    2
    19    14    15    1
    20    15    16    1
    21    16    17    2
    22     4     5    1
    23     5     6    1
    24    23    24   ar
    25    24    25   ar
    26    25    20   ar
    27     6     1    1
    28    17     9    1
    29    16    11    1
    30     7     8    1
@<TRIPOS>MOLECULE
*****
 27 30 0 0 0
SMALL
GASTEIGER

@<TRIPOS>ATOM
      1 N         140.5933  139.7181  167.2984 N.3     1  UNL1       -0.2722
      2 C         141.4812  139.0873  166.2671 C.3     1  UNL1        0.0754
      3 C         140.8783  138.3509  165.1075 C.3     1  UNL1        0.0543
      4 C         139.3876  138.2454  164.9794 C.3     1  UNL1        0.1331
      5 C         138.4996  138.8762  166.0108 C.3     1  UNL1        0.0543
      6 C         139.1025  139.6125  167.1703 C.3     1  UNL1        0.0754
      7 N         138.7847  137.5091  163.8200 N.pl3   1  UNL1       -0.2232
      8 H         138.3299  136.6483  163.9663 H       1  UNL1        0.2454
      9 C         138.8748  138.0843  162.4376 C.cat   1  UNL1        0.4199
     10 N         137.9360  139.0886  161.8376 N.2     1  UNL1       -0.0679
     11 C         138.4005  139.3812  160.4416 C.2     1  UNL1        0.1887
     12 C         137.8656  140.2911  159.3758 C.2     1  UNL1        0.0395
     13 C         138.5565  140.3774  158.0473 C.2     1  UNL1       -0.0010
     14 C         139.7824  139.5539  157.7845 C.2     1  UNL1       -0.0181
     15 C         140.3173  138.6440  158.8503 C.3     1  UNL1        0.0932
     16 C         139.6263  138.5576  160.1788 C.2     1  UNL1        0.1744
     17 N         139.9195  137.7561  161.4124 N.2     1  UNL1       -0.0718
     18 C         141.1961  140.4544  168.4579 C.3     1  UNL1        0.0768
     19 C         141.5623  141.9023  168.3183 C.3     1  UNL1        0.0437
     20 C         142.6802  143.5618  164.2876 C.ar    1  UNL1        0.1387
     21 C         143.7475  143.0591  165.2140 C.ar    1  UNL1        0.0366
     22 C         143.3749  142.5059  166.5575 C.ar    1  UNL1       -0.0011
     23 C         141.9349  142.4554  166.9748 C.ar    1  UNL1       -0.0206
     24 C         140.8676  142.9581  166.0484 C.ar    1  UNL1       -0.0011
     25 C         141.2403  143.5113  164.7048 C.ar    1  UNL1        0.0366
     26 C         144.3876  143.7886  162.3425 C.3     1  UNL1        0.2525
     27 O         143.0527  144.1149  162.9441 O.3     1  UNL1       -0.4714
@<TRIPOS>BOND
     1    26    27    1
     2    27    20    1
     3    20    21   ar
     4    21    22   ar
     5    22    23   ar
     6    23    19    1
     7    19    18    1
     8    18     1    1
     9     1     2    1
    10     2     3    1
    11     3     4    1
    12     4     7    1
    13     7     9    1
    14     9    10    2
    15    10    11    1
    16    11    12    2
    17    12    13    1
    18    13    14    2
    19    14    15    1
    20    15    16    1
    21    16    17    2
    22     4     5    1
    23     5     6    1
    24    23    24   ar
    25    24    25   ar
    26    25    20   ar
    27     6     1    1
    28    17     9    1
    29    16    11    1
    30     7     8    1
