@<TRIPOS>MOLECULE
*****
 25 26 0 0 0
SMALL
GASTEIGER

@<TRIPOS>ATOM
      1 C         140.2353  144.6805  163.0711 C.ar    1  UNL1        0.1331
      2 N         140.8109  143.6041  163.9429 N.ar    1  UNL1       -0.2295
      3 C         139.9212  143.4528  165.1410 C.ar    1  UNL1        0.0996
      4 C         138.7957  144.4356  165.0097 C.ar    1  UNL1        0.0927
      5 N         138.9898  145.1944  163.7304 N.ar    1  UNL1       -0.3384
      6 H         138.4029  145.9050  163.3843 H       1  UNL1        0.1672
      7 C         140.1217  142.4879  166.2719 C.ar    1  UNL1        0.0194
      8 C         139.8324  141.0295  166.0737 C.ar    1  UNL1        0.0047
      9 C         140.0330  140.0647  167.2046 C.ar    1  UNL1        0.0372
     10 C         140.5229  140.5583  168.5337 C.ar    1  UNL1        0.1468
     11 C         140.8122  142.0167  168.7318 C.ar    1  UNL1        0.0372
     12 C         140.6116  142.9815  167.6010 C.ar    1  UNL1        0.0047
     13 O         140.7235  139.5935  169.6646 O.3     1  UNL1       -0.4045
     14 C         142.0442  139.5324  170.3731 C.3     1  UNL1        0.5753
     15 F         143.3650  139.4713  171.0815 F       1  UNL1       -0.1328
     16 F         142.5769  138.6275  169.3020 F       1  UNL1       -0.1328
     17 F         141.5114  140.4373  171.4441 F       1  UNL1       -0.1328
     18 C         140.8052  145.1590  161.7686 C.3     1  UNL1        0.1071
     19 C         139.8219  146.2916  161.7546 C.3     1  UNL1        0.0274
     20 C         141.7885  144.0263  161.7827 C.3     1  UNL1        0.0274
     21 C         141.3218  145.6849  157.8692 C.3     1  UNL1        0.0946
     22 C         140.7520  145.2064  159.1716 C.2     1  UNL1        0.2232
     23 O         139.5592  144.2969  159.1794 O.2     1  UNL1       -0.2751
     24 N         141.3750  145.6375  160.4662 N.am    1  UNL1       -0.3012
     25 H         142.1578  146.2344  160.4611 H       1  UNL1        0.1497
@<TRIPOS>BOND
     1    21    22    1
     2    22    23    2
     3    22    24   am
     4    24    18    1
     5    18    19    1
     6    18    20    1
     7    18     1    1
     8     1     2   ar
     9     2     3   ar
    10     3     7    1
    11     7     8   ar
    12     8     9   ar
    13     9    10   ar
    14    10    13    1
    15    13    14    1
    16    14    15    1
    17    14    16    1
    18    14    17    1
    19    10    11   ar
    20    11    12   ar
    21     3     4   ar
    22     4     5   ar
    23     5     1   ar
    24    12     7   ar
    25    24    25    1
    26     5     6    1
@<TRIPOS>MOLECULE
*****
 25 26 0 0 0
SMALL
GASTEIGER

@<TRIPOS>ATOM
      1 C         140.1423  144.4941  162.9077 C.ar    1  UNL1        0.1331
      2 N         140.7809  143.5396  163.8726 N.ar    1  UNL1       -0.2295
      3 C         139.7928  143.2537  164.9644 C.ar    1  UNL1        0.0996
      4 C         138.5436  144.0317  164.6744 C.ar    1  UNL1        0.0927
      5 N         138.7595  144.7983  163.4033 N.ar    1  UNL1       -0.3384
      6 H         138.1081  145.3961  162.9703 H       1  UNL1        0.1672
      7 C         140.0151  142.3488  166.1400 C.ar    1  UNL1        0.0194
      8 C         140.4558  142.9214  167.4544 C.ar    1  UNL1        0.0047
      9 C         140.6781  142.0165  168.6299 C.ar    1  UNL1        0.0372
     10 C         140.4596  140.5390  168.4908 C.ar    1  UNL1        0.1468
     11 C         140.0188  139.9664  167.1764 C.ar    1  UNL1        0.0372
     12 C         139.7966  140.8713  166.0009 C.ar    1  UNL1        0.0047
     13 O         140.6818  139.6341  169.6664 O.3     1  UNL1       -0.4045
     14 C         142.0176  139.6044  170.3480 C.3     1  UNL1        0.5753
     15 F         143.3535  139.5747  171.0297 F       1  UNL1       -0.1328
     16 F         142.5402  138.6854  169.2840 F       1  UNL1       -0.1328
     17 F         141.4950  140.5234  171.4121 F       1  UNL1       -0.1328
     18 C         140.7752  145.0474  161.6655 C.3     1  UNL1        0.1071
     19 C         141.7140  143.8783  161.6230 C.3     1  UNL1        0.0274
     20 C         139.8365  146.2166  161.7079 C.3     1  UNL1        0.0274
     21 C         141.4704  145.8182  157.8351 C.3     1  UNL1        0.0946
     22 C         140.8375  145.2649  159.0773 C.2     1  UNL1        0.2232
     23 O         139.6338  144.3758  158.9736 O.2     1  UNL1       -0.2751
     24 N         141.4082  145.6007  160.4232 N.am    1  UNL1       -0.3012
     25 H         142.1982  146.1842  160.4913 H       1  UNL1        0.1497
@<TRIPOS>BOND
     1    21    22    1
     2    22    23    2
     3    22    24   am
     4    24    18    1
     5    18    19    1
     6    18    20    1
     7    18     1    1
     8     1     2   ar
     9     2     3   ar
    10     3     7    1
    11     7     8   ar
    12     8     9   ar
    13     9    10   ar
    14    10    13    1
    15    13    14    1
    16    14    15    1
    17    14    16    1
    18    14    17    1
    19    10    11   ar
    20    11    12   ar
    21     3     4   ar
    22     4     5   ar
    23     5     1   ar
    24    12     7   ar
    25    24    25    1
    26     5     6    1
@<TRIPOS>MOLECULE
*****
 25 26 0 0 0
SMALL
GASTEIGER

@<TRIPOS>ATOM
      1 C         141.7655  144.3122  161.4427 C.ar    1  UNL1        0.1331
      2 N         141.0957  143.6932  162.6336 N.ar    1  UNL1       -0.2295
      3 C         142.0854  143.6670  163.7605 C.ar    1  UNL1        0.0996
      4 C         143.3668  144.2699  163.2661 C.ar    1  UNL1        0.0927
      5 N         143.1691  144.6686  161.8337 N.ar    1  UNL1       -0.3384
      6 H         143.8424  145.0902  161.2522 H       1  UNL1        0.1672
      7 C         141.8371  143.1319  165.1397 C.ar    1  UNL1        0.0194
      8 C         140.4614  143.1986  165.7337 C.ar    1  UNL1        0.0047
      9 C         140.2132  142.6635  167.1128 C.ar    1  UNL1        0.0372
     10 C         141.3407  142.0617  167.8979 C.ar    1  UNL1        0.1468
     11 C         142.7165  141.9950  167.3040 C.ar    1  UNL1        0.0372
     12 C         142.9647  142.5301  165.9249 C.ar    1  UNL1        0.0047
     13 O         141.0925  141.5265  169.2771 O.3     1  UNL1       -0.4045
     14 C         139.7391  140.9928  169.6422 C.3     1  UNL1        0.5753
     15 F         138.3856  140.4590  170.0072 F       1  UNL1       -0.1328
     16 F         140.0750  139.6889  168.9812 F       1  UNL1       -0.1328
     17 F         139.4031  142.2967  170.3032 F       1  UNL1       -0.1328
     18 C         141.1412  144.5356  160.0972 C.3     1  UNL1        0.1071
     19 C         140.3154  145.6513  160.6656 C.3     1  UNL1        0.0274
     20 C         141.9671  143.4199  159.5288 C.3     1  UNL1        0.0274
     21 C         140.5882  145.8388  156.3898 C.3     1  UNL1        0.0946
     22 C         141.2124  145.6153  157.7353 C.2     1  UNL1        0.2232
     23 O         142.5319  146.2482  158.0643 O.2     1  UNL1       -0.2751
     24 N         140.5170  144.7590  158.7517 N.am    1  UNL1       -0.3012
     25 H         139.6510  144.3437  158.5358 H       1  UNL1        0.1497
@<TRIPOS>BOND
     1    21    22    1
     2    22    23    2
     3    22    24   am
     4    24    18    1
     5    18    19    1
     6    18    20    1
     7    18     1    1
     8     1     2   ar
     9     2     3   ar
    10     3     7    1
    11     7     8   ar
    12     8     9   ar
    13     9    10   ar
    14    10    13    1
    15    13    14    1
    16    14    15    1
    17    14    16    1
    18    14    17    1
    19    10    11   ar
    20    11    12   ar
    21     3     4   ar
    22     4     5   ar
    23     5     1   ar
    24    12     7   ar
    25    24    25    1
    26     5     6    1
@<TRIPOS>MOLECULE
*****
 25 26 0 0 0
SMALL
GASTEIGER

@<TRIPOS>ATOM
      1 C         141.5030  144.3830  161.8225 C.ar    1  UNL1        0.1331
      2 N         140.9701  143.7107  163.0530 N.ar    1  UNL1       -0.2295
      3 C         142.0690  143.6727  164.0732 C.ar    1  UNL1        0.0996
      4 C         143.2811  144.3214  163.4733 C.ar    1  UNL1        0.0927
      5 N         142.9314  144.7605  162.0823 N.ar    1  UNL1       -0.3384
      6 H         143.5335  145.2163  161.4508 H       1  UNL1        0.1672
      7 C         141.9727  143.0884  165.4515 C.ar    1  UNL1        0.0194
      8 C         140.6329  142.9305  166.1072 C.ar    1  UNL1        0.0047
      9 C         140.5367  142.3463  167.4853 C.ar    1  UNL1        0.0372
     10 C         141.7802  141.9199  168.2077 C.ar    1  UNL1        0.1468
     11 C         143.1200  142.0778  167.5520 C.ar    1  UNL1        0.0372
     12 C         143.2162  142.6620  166.1739 C.ar    1  UNL1        0.0047
     13 O         141.6839  141.3356  169.5860 O.3     1  UNL1       -0.4045
     14 C         142.0363  139.8960  169.8166 C.3     1  UNL1        0.5753
     15 F         142.3887  138.4562  170.0472 F       1  UNL1       -0.1328
     16 F         140.6998  139.4822  169.2759 F       1  UNL1       -0.1328
     17 F         143.3728  140.3098  170.3573 F       1  UNL1       -0.1328
     18 C         140.7414  144.6338  160.5549 C.3     1  UNL1        0.1071
     19 C         141.3371  143.3963  159.9520 C.3     1  UNL1        0.0274
     20 C         140.1456  145.8714  161.1577 C.3     1  UNL1        0.0274
     21 C         139.8822  145.8369  156.8719 C.3     1  UNL1        0.0946
     22 C         140.6438  145.5861  158.1396 C.2     1  UNL1        0.2232
     23 O         142.0695  146.0367  158.2596 O.2     1  UNL1       -0.2751
     24 N         139.9797  144.8847  159.2872 N.am    1  UNL1       -0.3012
     25 H         139.0440  144.5889  159.2084 H       1  UNL1        0.1497
@<TRIPOS>BOND
     1    21    22    1
     2    22    23    2
     3    22    24   am
     4    24    18    1
     5    18    19    1
     6    18    20    1
     7    18     1    1
     8     1     2   ar
     9     2     3   ar
    10     3     7    1
    11     7     8   ar
    12     8     9   ar
    13     9    10   ar
    14    10    13    1
    15    13    14    1
    16    14    15    1
    17    14    16    1
    18    14    17    1
    19    10    11   ar
    20    11    12   ar
    21     3     4   ar
    22     4     5   ar
    23     5     1   ar
    24    12     7   ar
    25    24    25    1
    26     5     6    1
@<TRIPOS>MOLECULE
*****
 25 26 0 0 0
SMALL
GASTEIGER

@<TRIPOS>ATOM
      1 C         140.6753  144.4096  162.0163 C.ar    1  UNL1        0.1331
      2 N         140.0143  143.3875  162.8928 N.ar    1  UNL1       -0.2295
      3 C         140.7861  143.3091  164.1767 C.ar    1  UNL1        0.0996
      4 C         141.9240  144.2829  164.0937 C.ar    1  UNL1        0.0927
      5 N         141.8556  144.9630  162.7585 N.ar    1  UNL1       -0.3384
      6 H         142.4763  145.6517  162.4274 H       1  UNL1        0.1672
      7 C         140.4745  142.4142  165.3395 C.ar    1  UNL1        0.0194
      8 C         140.9992  142.7479  166.7045 C.ar    1  UNL1        0.0047
      9 C         140.6876  141.8529  167.8672 C.ar    1  UNL1        0.0372
     10 C         139.8513  140.6242  167.6649 C.ar    1  UNL1        0.1468
     11 C         139.3266  140.2905  166.2999 C.ar    1  UNL1        0.0372
     12 C         139.6382  141.1855  165.1372 C.ar    1  UNL1        0.0047
     13 O         139.5397  139.7292  168.8277 O.3     1  UNL1       -0.4045
     14 C         139.9701  140.1192  170.2106 C.3     1  UNL1        0.5753
     15 F         140.4005  140.5091  171.5937 F       1  UNL1       -0.1328
     16 F         141.1706  139.2284  170.0882 F       1  UNL1       -0.1328
     17 F         138.7695  141.0100  170.3331 F       1  UNL1       -0.1328
     18 C         140.2337  144.8083  160.6394 C.3     1  UNL1        0.1071
     19 C         139.8463  146.1623  161.1557 C.3     1  UNL1        0.0274
     20 C         140.6210  143.4544  160.1230 C.3     1  UNL1        0.0274
     21 C         140.3553  146.1080  156.8916 C.3     1  UNL1        0.0946
     22 C         140.7969  145.7093  158.2685 C.2     1  UNL1        0.2232
     23 O         142.2435  145.8128  158.6515 O.2     1  UNL1       -0.2751
     24 N         139.7920  145.2071  159.2625 N.am    1  UNL1       -0.3012
     25 H         138.8425  145.1392  159.0111 H       1  UNL1        0.1497
@<TRIPOS>BOND
     1    21    22    1
     2    22    23    2
     3    22    24   am
     4    24    18    1
     5    18    19    1
     6    18    20    1
     7    18     1    1
     8     1     2   ar
     9     2     3   ar
    10     3     7    1
    11     7     8   ar
    12     8     9   ar
    13     9    10   ar
    14    10    13    1
    15    13    14    1
    16    14    15    1
    17    14    16    1
    18    14    17    1
    19    10    11   ar
    20    11    12   ar
    21     3     4   ar
    22     4     5   ar
    23     5     1   ar
    24    12     7   ar
    25    24    25    1
    26     5     6    1
@<TRIPOS>MOLECULE
*****
 25 26 0 0 0
SMALL
GASTEIGER

@<TRIPOS>ATOM
      1 C         139.2008  143.8149  161.5867 C.ar    1  UNL1        0.1331
      2 N         140.0017  143.4135  162.7898 N.ar    1  UNL1       -0.2295
      3 C         139.0724  142.7572  163.7674 C.ar    1  UNL1        0.0996
      4 C         137.6971  142.7530  163.1685 C.ar    1  UNL1        0.0927
      5 N         137.7765  143.4067  161.8208 N.ar    1  UNL1       -0.3384
      6 H         137.0256  143.5438  161.1990 H       1  UNL1        0.1672
      7 C         139.4517  142.2024  165.1085 C.ar    1  UNL1        0.0194
      8 C         140.2245  143.0467  166.0780 C.ar    1  UNL1        0.0047
      9 C         140.6039  142.4919  167.4190 C.ar    1  UNL1        0.0372
     10 C         140.2104  141.0929  167.7904 C.ar    1  UNL1        0.1468
     11 C         139.4376  140.2487  166.8209 C.ar    1  UNL1        0.0372
     12 C         139.0583  140.8035  165.4799 C.ar    1  UNL1        0.0047
     13 O         140.5898  140.5382  169.1315 O.3     1  UNL1       -0.4045
     14 C         140.5092  141.4061  170.3522 C.3     1  UNL1        0.5753
     15 F         140.4285  142.2741  171.5730 F       1  UNL1       -0.1328
     16 F         139.0206  141.4951  170.1907 F       1  UNL1       -0.1328
     17 F         141.9978  141.3171  170.5138 F       1  UNL1       -0.1328
     18 C         139.7311  144.5036  160.3642 C.3     1  UNL1        0.1071
     19 C         140.0632  145.7118  161.1889 C.3     1  UNL1        0.0274
     20 C         139.3990  143.2955  159.5396 C.3     1  UNL1        0.0274
     21 C         142.2335  145.7246  157.5364 C.3     1  UNL1        0.0946
     22 C         141.7032  145.0359  158.7589 C.2     1  UNL1        0.2232
     23 O         142.6148  144.1908  159.5984 O.2     1  UNL1       -0.2751
     24 N         140.2614  145.1924  159.1418 N.am    1  UNL1       -0.3012
     25 H         139.6631  145.7470  158.5907 H       1  UNL1        0.1497
@<TRIPOS>BOND
     1    21    22    1
     2    22    23    2
     3    22    24   am
     4    24    18    1
     5    18    19    1
     6    18    20    1
     7    18     1    1
     8     1     2   ar
     9     2     3   ar
    10     3     7    1
    11     7     8   ar
    12     8     9   ar
    13     9    10   ar
    14    10    13    1
    15    13    14    1
    16    14    15    1
    17    14    16    1
    18    14    17    1
    19    10    11   ar
    20    11    12   ar
    21     3     4   ar
    22     4     5   ar
    23     5     1   ar
    24    12     7   ar
    25    24    25    1
    26     5     6    1
@<TRIPOS>MOLECULE
*****
 25 26 0 0 0
SMALL
GASTEIGER

@<TRIPOS>ATOM
      1 C         143.1544  143.4436  161.6335 C.ar    1  UNL1        0.1331
      2 N         142.9126  142.5713  162.8296 N.ar    1  UNL1       -0.2295
      3 C         142.4457  143.4465  163.9548 C.ar    1  UNL1        0.0996
      4 C         142.3988  144.8597  163.4541 C.ar    1  UNL1        0.0927
      5 N         142.8368  144.8580  162.0195 N.ar    1  UNL1       -0.3384
      6 H         142.9040  145.6466  161.4341 H       1  UNL1        0.1672
      7 C         142.0883  142.9888  165.3379 C.ar    1  UNL1        0.0194
      8 C         140.6674  143.0708  165.8113 C.ar    1  UNL1        0.0047
      9 C         140.3101  142.6131  167.1943 C.ar    1  UNL1        0.0372
     10 C         141.3737  142.0733  168.1039 C.ar    1  UNL1        0.1468
     11 C         142.7946  141.9912  167.6305 C.ar    1  UNL1        0.0372
     12 C         143.1519  142.4490  166.2475 C.ar    1  UNL1        0.0047
     13 O         141.0163  141.6155  169.4870 O.3     1  UNL1       -0.4045
     14 C         139.6586  141.0389  169.7587 C.3     1  UNL1        0.5753
     15 F         138.3007  140.4623  170.0305 F       1  UNL1       -0.1328
     16 F         139.2402  142.3275  170.4025 F       1  UNL1       -0.1328
     17 F         140.0769  139.7504  169.1150 F       1  UNL1       -0.1328
     18 C         143.6301  142.9826  160.2877 C.3     1  UNL1        0.1071
     19 C         142.3396  143.4397  159.6749 C.3     1  UNL1        0.0274
     20 C         144.9207  142.5256  160.9005 C.3     1  UNL1        0.0274
     21 C         144.4113  140.6264  157.1914 C.3     1  UNL1        0.0946
     22 C         143.9356  141.0874  158.5372 C.2     1  UNL1        0.2232
     23 O         143.2895  140.1141  159.4781 O.2     1  UNL1       -0.2751
     24 N         144.1059  142.5217  158.9420 N.am    1  UNL1       -0.3012
     25 H         144.5299  143.1604  158.3244 H       1  UNL1        0.1497
@<TRIPOS>BOND
     1    21    22    1
     2    22    23    2
     3    22    24   am
     4    24    18    1
     5    18    19    1
     6    18    20    1
     7    18     1    1
     8     1     2   ar
     9     2     3   ar
    10     3     7    1
    11     7     8   ar
    12     8     9   ar
    13     9    10   ar
    14    10    13    1
    15    13    14    1
    16    14    15    1
    17    14    16    1
    18    14    17    1
    19    10    11   ar
    20    11    12   ar
    21     3     4   ar
    22     4     5   ar
    23     5     1   ar
    24    12     7   ar
    25    24    25    1
    26     5     6    1
@<TRIPOS>MOLECULE
*****
 25 26 0 0 0
SMALL
GASTEIGER

@<TRIPOS>ATOM
      1 C         138.7412  139.0282  162.9506 C.ar    1  UNL1        0.1331
      2 N         139.3457  139.8960  164.0143 N.ar    1  UNL1       -0.2295
      3 C         139.7338  139.0160  165.1653 C.ar    1  UNL1        0.0996
      4 C         139.3693  137.6043  164.8130 C.ar    1  UNL1        0.0927
      5 N         138.7558  137.6118  163.4442 N.ar    1  UNL1       -0.3384
      6 H         138.4214  136.8252  162.9557 H       1  UNL1        0.1672
      7 C         140.3742  139.4683  166.4442 C.ar    1  UNL1        0.0194
      8 C         141.8683  139.4676  166.5760 C.ar    1  UNL1        0.0047
      9 C         142.5086  139.9199  167.8549 C.ar    1  UNL1        0.0372
     10 C         141.6547  140.3730  169.0018 C.ar    1  UNL1        0.1468
     11 C         140.1605  140.3738  168.8700 C.ar    1  UNL1        0.0372
     12 C         139.5203  139.9214  167.5912 C.ar    1  UNL1        0.0047
     13 O         142.2950  140.8254  170.2807 O.3     1  UNL1       -0.4045
     14 C         142.6452  142.2710  170.4737 C.3     1  UNL1        0.5753
     15 F         142.9956  143.7168  170.6667 F       1  UNL1       -0.1328
     16 F         144.0081  142.0173  169.9008 F       1  UNL1       -0.1328
     17 F         141.2824  142.5247  171.0466 F       1  UNL1       -0.1328
     18 C         138.2146  139.4947  161.6258 C.3     1  UNL1        0.1071
     19 C         138.7995  138.2813  160.9659 C.3     1  UNL1        0.0274
     20 C         137.6297  140.7082  162.2857 C.3     1  UNL1        0.0274
     21 C         138.0136  141.2888  158.0916 C.3     1  UNL1        0.0946
     22 C         138.5402  140.8222  159.4164 C.2     1  UNL1        0.2232
     23 O         139.9189  141.2165  159.8564 O.2     1  UNL1       -0.2751
     24 N         137.6880  139.9613  160.3011 N.am    1  UNL1       -0.3012
     25 H         136.7831  139.7026  160.0122 H       1  UNL1        0.1497
@<TRIPOS>BOND
     1    21    22    1
     2    22    23    2
     3    22    24   am
     4    24    18    1
     5    18    19    1
     6    18    20    1
     7    18     1    1
     8     1     2   ar
     9     2     3   ar
    10     3     7    1
    11     7     8   ar
    12     8     9   ar
    13     9    10   ar
    14    10    13    1
    15    13    14    1
    16    14    15    1
    17    14    16    1
    18    14    17    1
    19    10    11   ar
    20    11    12   ar
    21     3     4   ar
    22     4     5   ar
    23     5     1   ar
    24    12     7   ar
    25    24    25    1
    26     5     6    1
@<TRIPOS>MOLECULE
*****
 25 26 0 0 0
SMALL
GASTEIGER

@<TRIPOS>ATOM
      1 C         142.4495  138.4110  162.2744 C.ar    1  UNL1        0.1331
      2 N         142.4454  139.3067  163.4776 N.ar    1  UNL1       -0.2295
      3 C         141.6683  138.6219  164.5626 C.ar    1  UNL1        0.0996
      4 C         141.1920  137.3030  164.0299 C.ar    1  UNL1        0.0927
      5 N         141.6748  137.1727  162.6157 N.ar    1  UNL1       -0.3384
      6 H         141.5118  136.4086  162.0167 H       1  UNL1        0.1672
      7 C         141.4123  139.1613  165.9387 C.ar    1  UNL1        0.0194
      8 C         140.0235  139.5595  166.3419 C.ar    1  UNL1        0.0047
      9 C         139.7677  140.0989  167.7179 C.ar    1  UNL1        0.0372
     10 C         140.9006  140.2401  168.6908 C.ar    1  UNL1        0.1468
     11 C         142.2894  139.8418  168.2876 C.ar    1  UNL1        0.0372
     12 C         142.5453  139.3024  166.9116 C.ar    1  UNL1        0.0047
     13 O         140.6447  140.7795  170.0669 O.3     1  UNL1       -0.4045
     14 C         140.2213  142.2073  170.2460 C.3     1  UNL1        0.5753
     15 F         139.7978  143.6351  170.4252 F       1  UNL1       -0.1328
     16 F         138.7969  141.7649  170.4048 F       1  UNL1       -0.1328
     17 F         141.6458  142.6496  170.0873 F       1  UNL1       -0.1328
     18 C         143.1118  138.7025  160.9605 C.3     1  UNL1        0.1071
     19 C         141.8777  138.2500  160.2379 C.3     1  UNL1        0.0274
     20 C         144.3459  139.1551  161.6831 C.3     1  UNL1        0.0274
     21 C         144.3289  140.6529  157.7256 C.3     1  UNL1        0.0946
     22 C         143.6665  140.3614  159.0395 C.2     1  UNL1        0.2232
     23 O         142.8964  141.4373  159.7462 O.2     1  UNL1       -0.2751
     24 N         143.7742  138.9940  159.6466 N.am    1  UNL1       -0.3012
     25 H         144.2796  138.2879  159.1828 H       1  UNL1        0.1497
@<TRIPOS>BOND
     1    21    22    1
     2    22    23    2
     3    22    24   am
     4    24    18    1
     5    18    19    1
     6    18    20    1
     7    18     1    1
     8     1     2   ar
     9     2     3   ar
    10     3     7    1
    11     7     8   ar
    12     8     9   ar
    13     9    10   ar
    14    10    13    1
    15    13    14    1
    16    14    15    1
    17    14    16    1
    18    14    17    1
    19    10    11   ar
    20    11    12   ar
    21     3     4   ar
    22     4     5   ar
    23     5     1   ar
    24    12     7   ar
    25    24    25    1
    26     5     6    1
