@<TRIPOS>MOLECULE
*****
 40 45 0 0 0
SMALL
GASTEIGER

@<TRIPOS>ATOM
      1 C         137.9568  142.8708  162.8301 C.3     1  UNL1        0.1177
      2 C         138.1927  142.5262  161.3894 C.3     1  UNL1        0.0310
      3 C         138.1715  141.0928  160.9479 C.3     1  UNL1        0.0194
      4 C         137.9144  140.0039  161.9472 C.3     1  UNL1        0.0700
      5 C         137.6785  140.3485  163.3879 C.3     1  UNL1        0.0194
      6 C         137.6997  141.7820  163.8293 C.3     1  UNL1        0.0310
      7 C         137.9165  140.7748  162.2364 C.3     1  UNL1        0.1563
      8 O         137.9356  142.0709  162.6357 O.3     1  UNL1       -0.3548
      9 C         137.9779  144.3041  163.2716 C.3     1  UNL1        0.1396
     10 O         137.0920  145.3096  162.5978 O.3     1  UNL1       -0.3817
     11 H         137.2278  146.1815  163.0006 H       1  UNL1        0.2105
     12 C         138.8850  144.7321  164.3871 C.3     1  UNL1        0.0619
     13 C         140.6661  141.6375  167.1259 C.ar    1  UNL1        0.2250
     14 C         142.1330  141.3318  167.0588 C.ar    1  UNL1        0.0593
     15 C         143.0063  142.0576  166.0787 C.ar    1  UNL1        0.0254
     16 C         142.4127  143.0891  165.1658 C.ar    1  UNL1        0.0990
     17 N         143.2860  143.8149  164.1857 N.ar    1  UNL1       -0.2400
     18 C         142.6923  144.8465  163.2728 C.ar    1  UNL1        0.1281
     19 C         141.2253  145.1522  163.3399 C.ar    1  UNL1        0.1567
     20 F         140.6316  146.1837  162.4269 F       1  UNL1       -0.2028
     21 C         140.3520  144.4264  164.3199 C.ar    1  UNL1        0.0285
     22 C         140.9457  143.3948  165.2329 C.ar    1  UNL1        0.1002
     23 N         140.0724  142.6690  166.2130 N.ar    1  UNL1       -0.2104
     24 C         140.3885  140.3291  169.3532 C.3     1  UNL1        0.2542
     25 O         139.7928  140.9117  168.1060 O.3     1  UNL1       -0.4561
     26 N         137.8933  138.5706  161.5057 N.3     1  UNL1       -0.2926
     27 H         137.3539  138.5369  160.6406 H       1  UNL1        0.1236
     28 C         139.1810  137.8481  161.2415 C.3     1  UNL1        0.1152
     29 C         140.3760  138.1027  162.1117 C.ar    1  UNL1        0.0765
     30 C         140.5469  137.3411  163.3927 C.ar    1  UNL1        0.0193
     31 C         141.7419  137.5957  164.2628 C.ar    1  UNL1        0.0411
     32 C         142.7659  138.6118  163.8520 C.ar    1  UNL1        0.1708
     33 C         142.5950  139.3734  162.5711 C.ar    1  UNL1        0.1682
     34 N         141.4000  139.1188  161.7009 N.ar    1  UNL1       -0.2304
     35 N         143.6191  140.3895  162.1603 N.am    1  UNL1       -0.2639
     36 C         144.8141  140.6441  163.0304 C.2     1  UNL1        0.2718
     37 O         145.8382  141.6602  162.6196 O.2     1  UNL1       -0.2707
     38 C         144.9850  139.8826  164.3114 C.3     1  UNL1        0.2898
     39 O         143.9610  138.8664  164.7222 O.3     1  UNL1       -0.4628
     40 H         143.5069  140.8893  161.3196 H       1  UNL1        0.1565
@<TRIPOS>BOND
     1    24    25    1
     2    25    13    1
     3    13    14   ar
     4    14    15   ar
     5    15    16   ar
     6    16    17   ar
     7    17    18   ar
     8    18    19   ar
     9    19    20    1
    10    19    21   ar
    11    21    12    1
    12    12     9    1
    13     9    10    1
    14     9     1    1
    15     1     2    1
    16     2     3    1
    17     3     4    1
    18     4    26    1
    19    26    28    1
    20    28    29    1
    21    29    30   ar
    22    30    31   ar
    23    31    32   ar
    24    32    33   ar
    25    33    34   ar
    26    33    35    1
    27    35    36   am
    28    36    37    2
    29    36    38    1
    30    38    39    1
    31     4     5    1
    32     5     6    1
    33     4     7    1
    34     7     8    1
    35    21    22   ar
    36    22    23   ar
    37    23    13   ar
    38    22    16   ar
    39     6     1    1
    40     8     1    1
    41    34    29   ar
    42    39    32    1
    43    10    11    1
    44    26    27    1
    45    35    40    1
@<TRIPOS>MOLECULE
*****
 40 45 0 0 0
SMALL
GASTEIGER

@<TRIPOS>ATOM
      1 C         143.9720  142.6359  163.2429 C.3     1  UNL1        0.1177
      2 C         143.3844  143.3495  164.4242 C.3     1  UNL1        0.0310
      3 C         142.3904  144.4533  164.2153 C.3     1  UNL1        0.0194
      4 C         141.9840  144.8435  162.8251 C.3     1  UNL1        0.0700
      5 C         142.5716  144.1299  161.6438 C.3     1  UNL1        0.0194
      6 C         143.5657  143.0260  161.8527 C.3     1  UNL1        0.0310
      7 C         142.5321  144.2325  162.8896 C.3     1  UNL1        0.1563
      8 O         143.4309  143.2344  163.0785 O.3     1  UNL1       -0.3548
      9 C         144.9660  141.5322  163.4518 C.3     1  UNL1        0.1396
     10 O         146.4285  141.7899  163.2404 O.3     1  UNL1       -0.3817
     11 H         146.9287  140.9777  163.4163 H       1  UNL1        0.2105
     12 C         144.4975  140.1706  163.8722 C.3     1  UNL1        0.0619
     13 C         140.7505  139.9425  166.3537 C.ar    1  UNL1        0.2250
     14 C         139.4961  139.3666  165.7666 C.ar    1  UNL1        0.0593
     15 C         139.4906  138.8667  164.3524 C.ar    1  UNL1        0.0254
     16 C         140.7396  138.9428  163.5252 C.ar    1  UNL1        0.0990
     17 N         140.7341  138.4429  162.1109 N.ar    1  UNL1       -0.2400
     18 C         141.9831  138.5189  161.2838 C.ar    1  UNL1        0.1281
     19 C         143.2376  139.0948  161.8708 C.ar    1  UNL1        0.1567
     20 F         144.4866  139.1708  161.0437 F       1  UNL1       -0.2028
     21 C         143.2431  139.5947  163.2851 C.ar    1  UNL1        0.0285
     22 C         141.9940  139.5186  164.1123 C.ar    1  UNL1        0.1002
     23 N         141.9995  140.0185  165.5265 N.ar    1  UNL1       -0.2104
     24 C         139.5918  140.1558  168.6692 C.3     1  UNL1        0.2542
     25 O         140.7560  140.4424  167.7679 O.3     1  UNL1       -0.4561
     26 N         140.9900  145.9472  162.6162 N.3     1  UNL1       -0.2926
     27 H         141.1340  146.2978  161.6692 H       1  UNL1        0.1236
     28 C         139.5223  145.6715  162.7574 C.3     1  UNL1        0.1152
     29 C         138.9904  144.2923  162.5029 C.ar    1  UNL1        0.0765
     30 C         138.4375  143.4806  163.6367 C.ar    1  UNL1        0.0193
     31 C         137.9056  142.1014  163.3822 C.ar    1  UNL1        0.0411
     32 C         137.9266  141.5338  161.9939 C.ar    1  UNL1        0.1708
     33 C         138.4795  142.3453  160.8601 C.ar    1  UNL1        0.1682
     34 N         139.0115  143.7246  161.1146 N.ar    1  UNL1       -0.2304
     35 N         138.5006  141.7777  159.4718 N.am    1  UNL1       -0.2639
     36 C         137.9687  140.3985  159.2173 C.2     1  UNL1        0.2718
     37 O         137.9897  139.8309  157.8290 O.2     1  UNL1       -0.2707
     38 C         137.4157  139.5868  160.3511 C.3     1  UNL1        0.2898
     39 O         137.3947  140.1545  161.7394 O.3     1  UNL1       -0.4628
     40 H         138.8635  142.3104  158.7276 H       1  UNL1        0.1565
@<TRIPOS>BOND
     1    24    25    1
     2    25    13    1
     3    13    14   ar
     4    14    15   ar
     5    15    16   ar
     6    16    17   ar
     7    17    18   ar
     8    18    19   ar
     9    19    20    1
    10    19    21   ar
    11    21    12    1
    12    12     9    1
    13     9    10    1
    14     9     1    1
    15     1     2    1
    16     2     3    1
    17     3     4    1
    18     4    26    1
    19    26    28    1
    20    28    29    1
    21    29    30   ar
    22    30    31   ar
    23    31    32   ar
    24    32    33   ar
    25    33    34   ar
    26    33    35    1
    27    35    36   am
    28    36    37    2
    29    36    38    1
    30    38    39    1
    31     4     5    1
    32     5     6    1
    33     4     7    1
    34     7     8    1
    35    21    22   ar
    36    22    23   ar
    37    23    13   ar
    38    22    16   ar
    39     6     1    1
    40     8     1    1
    41    34    29   ar
    42    39    32    1
    43    10    11    1
    44    26    27    1
    45    35    40    1
@<TRIPOS>MOLECULE
*****
 40 45 0 0 0
SMALL
GASTEIGER

@<TRIPOS>ATOM
      1 C         142.1282  138.3805  163.9299 C.3     1  UNL1        0.1177
      2 C         142.2601  138.8271  162.5040 C.3     1  UNL1        0.0310
      3 C         143.4133  139.6939  162.0932 C.3     1  UNL1        0.0194
      4 C         144.4347  140.1140  163.1083 C.3     1  UNL1        0.0700
      5 C         144.3028  139.6674  164.5342 C.3     1  UNL1        0.0194
      6 C         143.1494  138.8006  164.9450 C.3     1  UNL1        0.0310
      7 C         143.8201  139.6386  163.3808 C.3     1  UNL1        0.1563
      8 O         142.7773  138.8549  163.7523 O.3     1  UNL1       -0.3548
      9 C         140.9749  137.5138  164.3407 C.3     1  UNL1        0.1396
     10 O         141.0624  136.0247  164.1830 O.3     1  UNL1       -0.3817
     11 H         140.2386  135.6177  164.4937 H       1  UNL1        0.2105
     12 C         139.7341  138.1362  164.9092 C.3     1  UNL1        0.0619
     13 C         140.2889  142.2950  166.5361 C.ar    1  UNL1        0.2250
     14 C         139.6506  143.4625  165.8438 C.ar    1  UNL1        0.0593
     15 C         138.8274  143.2438  164.6091 C.ar    1  UNL1        0.0254
     16 C         138.6424  141.8576  164.0667 C.ar    1  UNL1        0.0990
     17 N         137.8192  141.6389  162.8320 N.ar    1  UNL1       -0.2400
     18 C         137.6343  140.2527  162.2897 C.ar    1  UNL1        0.1281
     19 C         138.2726  139.0850  162.9821 C.ar    1  UNL1        0.1567
     20 F         138.0877  137.6988  162.4398 F       1  UNL1       -0.2028
     21 C         139.0958  139.3037  164.2168 C.ar    1  UNL1        0.0285
     22 C         139.2807  140.6900  164.7591 C.ar    1  UNL1        0.1002
     23 N         140.1039  140.9087  165.9938 N.ar    1  UNL1       -0.2104
     24 C         142.5642  142.1381  167.7803 C.3     1  UNL1        0.2542
     25 O         141.1121  142.5136  167.7709 O.3     1  UNL1       -0.4561
     26 N         145.5879  140.9807  162.6975 N.3     1  UNL1       -0.2926
     27 H         145.6249  140.9581  161.6784 H       1  UNL1        0.1236
     28 C         145.6212  142.4253  163.1001 C.3     1  UNL1        0.1152
     29 C         144.3720  143.2527  163.0289 C.ar    1  UNL1        0.0765
     30 C         143.7751  143.8191  164.2831 C.ar    1  UNL1        0.0193
     31 C         142.5260  144.6464  164.2119 C.ar    1  UNL1        0.0411
     32 C         141.8737  144.9074  162.8866 C.ar    1  UNL1        0.1708
     33 C         142.4706  144.3410  161.6325 C.ar    1  UNL1        0.1682
     34 N         143.7198  143.5136  161.7036 N.ar    1  UNL1       -0.2304
     35 N         141.8183  144.6019  160.3071 N.am    1  UNL1       -0.2639
     36 C         140.5692  145.4293  160.2360 C.2     1  UNL1        0.2718
     37 O         139.9169  145.6902  158.9107 O.2     1  UNL1       -0.2707
     38 C         139.9722  145.9957  161.4901 C.3     1  UNL1        0.2898
     39 O         140.6245  145.7348  162.8155 O.3     1  UNL1       -0.4628
     40 H         142.2101  144.2302  159.4840 H       1  UNL1        0.1565
@<TRIPOS>BOND
     1    24    25    1
     2    25    13    1
     3    13    14   ar
     4    14    15   ar
     5    15    16   ar
     6    16    17   ar
     7    17    18   ar
     8    18    19   ar
     9    19    20    1
    10    19    21   ar
    11    21    12    1
    12    12     9    1
    13     9    10    1
    14     9     1    1
    15     1     2    1
    16     2     3    1
    17     3     4    1
    18     4    26    1
    19    26    28    1
    20    28    29    1
    21    29    30   ar
    22    30    31   ar
    23    31    32   ar
    24    32    33   ar
    25    33    34   ar
    26    33    35    1
    27    35    36   am
    28    36    37    2
    29    36    38    1
    30    38    39    1
    31     4     5    1
    32     5     6    1
    33     4     7    1
    34     7     8    1
    35    21    22   ar
    36    22    23   ar
    37    23    13   ar
    38    22    16   ar
    39     6     1    1
    40     8     1    1
    41    34    29   ar
    42    39    32    1
    43    10    11    1
    44    26    27    1
    45    35    40    1
@<TRIPOS>MOLECULE
*****
 40 45 0 0 0
SMALL
GASTEIGER

@<TRIPOS>ATOM
      1 C         141.6337  144.6857  162.9776 C.3     1  UNL1        0.1177
      2 C         142.6153  144.6785  164.1119 C.3     1  UNL1        0.0310
      3 C         143.9021  143.9182  163.9853 C.3     1  UNL1        0.0194
      4 C         144.2073  143.1650  162.7245 C.3     1  UNL1        0.0700
      5 C         143.2257  143.1722  161.5903 C.3     1  UNL1        0.0194
      6 C         141.9389  143.9325  161.7169 C.3     1  UNL1        0.0310
      7 C         143.4892  143.5671  162.7473 C.3     1  UNL1        0.1563
      8 O         142.3256  144.2546  162.8617 O.3     1  UNL1       -0.3548
      9 C         140.3469  145.4460  163.1042 C.3     1  UNL1        0.1396
     10 O         140.1462  146.7148  162.3298 O.3     1  UNL1       -0.3817
     11 H         139.2677  147.0770  162.5246 H       1  UNL1        0.2105
     12 C         139.2608  144.9375  164.0053 C.3     1  UNL1        0.0619
     13 C         140.5315  142.2970  167.4203 C.ar    1  UNL1        0.2250
     14 C         140.1737  140.8403  167.4155 C.ar    1  UNL1        0.0593
     15 C         139.3922  140.2638  166.2722 C.ar    1  UNL1        0.0254
     16 C         138.9686  141.1440  165.1339 C.ar    1  UNL1        0.0990
     17 N         138.1871  140.5675  163.9907 N.ar    1  UNL1       -0.2400
     18 C         137.7636  141.4476  162.8523 C.ar    1  UNL1        0.1281
     19 C         138.1214  142.9044  162.8572 C.ar    1  UNL1        0.1567
     20 F         137.6978  143.7845  161.7188 F       1  UNL1       -0.2028
     21 C         138.9029  143.4809  164.0004 C.ar    1  UNL1        0.0285
     22 C         139.3265  142.6006  165.1388 C.ar    1  UNL1        0.1002
     23 N         140.1079  143.1771  166.2820 N.ar    1  UNL1       -0.2104
     24 C         142.6961  142.3716  168.8553 C.3     1  UNL1        0.2542
     25 O         141.3130  142.8735  168.5636 O.3     1  UNL1       -0.4561
     26 N         145.4941  142.4047  162.5979 N.3     1  UNL1       -0.2926
     27 H         146.2371  143.0291  162.9116 H       1  UNL1        0.1236
     28 C         145.6762  141.1106  163.3343 C.3     1  UNL1        0.1152
     29 C         144.4915  140.2347  163.6158 C.ar    1  UNL1        0.0765
     30 C         144.3507  139.5707  164.9535 C.ar    1  UNL1        0.0193
     31 C         143.1660  138.6948  165.2350 C.ar    1  UNL1        0.0411
     32 C         142.1221  138.4829  164.1789 C.ar    1  UNL1        0.1708
     33 C         142.2628  139.1470  162.8413 C.ar    1  UNL1        0.1682
     34 N         143.4476  140.0229  162.5597 N.ar    1  UNL1       -0.2304
     35 N         141.2189  138.9351  161.7852 N.am    1  UNL1       -0.2639
     36 C         140.0342  138.0592  162.0668 C.2     1  UNL1        0.2718
     37 O         138.9902  137.8474  161.0107 O.2     1  UNL1       -0.2707
     38 C         139.8934  137.3951  163.4044 C.3     1  UNL1        0.2898
     39 O         140.9373  137.6070  164.4605 O.3     1  UNL1       -0.4628
     40 H         141.3113  139.3709  160.9073 H       1  UNL1        0.1565
@<TRIPOS>BOND
     1    24    25    1
     2    25    13    1
     3    13    14   ar
     4    14    15   ar
     5    15    16   ar
     6    16    17   ar
     7    17    18   ar
     8    18    19   ar
     9    19    20    1
    10    19    21   ar
    11    21    12    1
    12    12     9    1
    13     9    10    1
    14     9     1    1
    15     1     2    1
    16     2     3    1
    17     3     4    1
    18     4    26    1
    19    26    28    1
    20    28    29    1
    21    29    30   ar
    22    30    31   ar
    23    31    32   ar
    24    32    33   ar
    25    33    34   ar
    26    33    35    1
    27    35    36   am
    28    36    37    2
    29    36    38    1
    30    38    39    1
    31     4     5    1
    32     5     6    1
    33     4     7    1
    34     7     8    1
    35    21    22   ar
    36    22    23   ar
    37    23    13   ar
    38    22    16   ar
    39     6     1    1
    40     8     1    1
    41    34    29   ar
    42    39    32    1
    43    10    11    1
    44    26    27    1
    45    35    40    1
@<TRIPOS>MOLECULE
*****
 40 45 0 0 0
SMALL
GASTEIGER

@<TRIPOS>ATOM
      1 C         140.7659  144.7928  162.1154 C.3     1  UNL1        0.1177
      2 C         141.2239  143.7704  161.1179 C.3     1  UNL1        0.0310
      3 C         142.6383  143.2719  161.1504 C.3     1  UNL1        0.0194
      4 C         143.5947  143.7958  162.1805 C.3     1  UNL1        0.0700
      5 C         143.1366  144.8182  163.1780 C.3     1  UNL1        0.0194
      6 C         141.7222  145.3166  163.1454 C.3     1  UNL1        0.0310
      7 C         142.8294  144.0989  162.2020 C.3     1  UNL1        0.1563
      8 O         141.5505  144.5497  162.1726 O.3     1  UNL1       -0.3548
      9 C         139.3515  145.2912  162.0829 C.3     1  UNL1        0.1396
     10 O         139.0220  146.5663  161.3649 O.3     1  UNL1       -0.3817
     11 H         138.0712  146.7433  161.4400 H       1  UNL1        0.2105
     12 C         138.2666  144.5146  162.7684 C.3     1  UNL1        0.0619
     13 C         137.8274  140.2169  161.5086 C.ar    1  UNL1        0.2250
     14 C         138.1819  139.1156  162.4631 C.ar    1  UNL1        0.0593
     15 C         138.6829  139.4467  163.8377 C.ar    1  UNL1        0.0254
     16 C         138.8294  140.8793  164.2576 C.ar    1  UNL1        0.0990
     17 N         139.3304  141.2104  165.6321 N.ar    1  UNL1       -0.2400
     18 C         139.4768  142.6430  166.0521 C.ar    1  UNL1        0.1281
     19 C         139.1222  143.7444  165.0975 C.ar    1  UNL1        0.1567
     20 F         139.2686  145.1769  165.5174 F       1  UNL1       -0.2028
     21 C         138.6212  143.4132  163.7229 C.ar    1  UNL1        0.0285
     22 C         138.4748  141.9806  163.3030 C.ar    1  UNL1        0.1002
     23 N         137.9738  141.6494  161.9285 N.ar    1  UNL1       -0.2104
     24 C         137.9830  140.4930  158.9299 C.3     1  UNL1        0.2542
     25 O         137.3264  139.8857  160.1340 O.3     1  UNL1       -0.4561
     26 N         145.0090  143.2974  162.2130 N.3     1  UNL1       -0.2926
     27 H         145.5331  143.9373  162.8098 H       1  UNL1        0.1236
     28 C         145.3043  141.9101  162.7011 C.3     1  UNL1        0.1152
     29 C         144.4681  141.3040  163.7889 C.ar    1  UNL1        0.0765
     30 C         143.9271  139.9136  163.6326 C.ar    1  UNL1        0.0193
     31 C         143.0909  139.3075  164.7204 C.ar    1  UNL1        0.0411
     32 C         142.7957  140.0916  165.9646 C.ar    1  UNL1        0.1708
     33 C         143.3366  141.4819  166.1209 C.ar    1  UNL1        0.1682
     34 N         144.1728  142.0881  165.0331 N.ar    1  UNL1       -0.2304
     35 N         143.0413  142.2660  167.3651 N.am    1  UNL1       -0.2639
     36 C         142.2051  141.6599  168.4529 C.2     1  UNL1        0.2718
     37 O         141.9099  142.4440  169.6971 O.2     1  UNL1       -0.2707
     38 C         141.6642  140.2695  168.2966 C.3     1  UNL1        0.2898
     39 O         141.9594  139.4854  167.0524 O.3     1  UNL1       -0.4628
     40 H         143.3964  143.1785  167.4677 H       1  UNL1        0.1565
@<TRIPOS>BOND
     1    24    25    1
     2    25    13    1
     3    13    14   ar
     4    14    15   ar
     5    15    16   ar
     6    16    17   ar
     7    17    18   ar
     8    18    19   ar
     9    19    20    1
    10    19    21   ar
    11    21    12    1
    12    12     9    1
    13     9    10    1
    14     9     1    1
    15     1     2    1
    16     2     3    1
    17     3     4    1
    18     4    26    1
    19    26    28    1
    20    28    29    1
    21    29    30   ar
    22    30    31   ar
    23    31    32   ar
    24    32    33   ar
    25    33    34   ar
    26    33    35    1
    27    35    36   am
    28    36    37    2
    29    36    38    1
    30    38    39    1
    31     4     5    1
    32     5     6    1
    33     4     7    1
    34     7     8    1
    35    21    22   ar
    36    22    23   ar
    37    23    13   ar
    38    22    16   ar
    39     6     1    1
    40     8     1    1
    41    34    29   ar
    42    39    32    1
    43    10    11    1
    44    26    27    1
    45    35    40    1
@<TRIPOS>MOLECULE
*****
 40 45 0 0 0
SMALL
GASTEIGER

@<TRIPOS>ATOM
      1 C         138.2754  140.1048  164.5303 C.3     1  UNL1        0.1177
      2 C         137.5790  140.2633  163.2112 C.3     1  UNL1        0.0310
      3 C         137.3814  141.6306  162.6270 C.3     1  UNL1        0.0194
      4 C         137.8801  142.8395  163.3618 C.3     1  UNL1        0.0700
      5 C         138.5764  142.6810  164.6809 C.3     1  UNL1        0.0194
      6 C         138.7741  141.3136  165.2652 C.3     1  UNL1        0.0310
      7 C         138.0116  142.1107  163.7218 C.3     1  UNL1        0.1563
      8 O         138.1903  140.8744  164.2501 O.3     1  UNL1       -0.3548
      9 C         138.4730  138.7375  165.1146 C.3     1  UNL1        0.1396
     10 O         137.9600  138.4282  166.4898 O.3     1  UNL1       -0.3817
     11 H         138.1692  137.5078  166.7135 H       1  UNL1        0.2105
     12 C         139.1836  137.6794  164.3236 C.3     1  UNL1        0.0619
     13 C         143.1802  138.6985  166.1231 C.ar    1  UNL1        0.2250
     14 C         144.3297  139.0715  165.2345 C.ar    1  UNL1        0.0593
     15 C         144.1469  139.1047  163.7460 C.ar    1  UNL1        0.0254
     16 C         142.8147  138.7650  163.1462 C.ar    1  UNL1        0.0990
     17 N         142.6319  138.7983  161.6578 N.ar    1  UNL1       -0.2400
     18 C         141.2997  138.4586  161.0579 C.ar    1  UNL1        0.1281
     19 C         140.1502  138.0856  161.9466 C.ar    1  UNL1        0.1567
     20 F         138.8180  137.7459  161.3467 F       1  UNL1       -0.2028
     21 C         140.3330  138.0524  163.4350 C.ar    1  UNL1        0.0285
     22 C         141.6653  138.3921  164.0348 C.ar    1  UNL1        0.1002
     23 N         141.8481  138.3588  165.5233 N.ar    1  UNL1       -0.2104
     24 C         142.5574  139.5790  168.4867 C.3     1  UNL1        0.2542
     25 O         143.3630  138.6653  167.6116 O.3     1  UNL1       -0.4561
     26 N         137.6825  144.2068  162.7775 N.3     1  UNL1       -0.2926
     27 H         137.0158  144.6905  163.3792 H       1  UNL1        0.1236
     28 C         138.8557  145.1253  162.6048 C.3     1  UNL1        0.1152
     29 C         140.0804  144.6497  161.8811 C.ar    1  UNL1        0.0765
     30 C         140.1842  144.8148  160.3937 C.ar    1  UNL1        0.0193
     31 C         141.4089  144.3393  159.6700 C.ar    1  UNL1        0.0411
     32 C         142.5299  143.6986  160.4335 C.ar    1  UNL1        0.1708
     33 C         142.4261  143.5335  161.9207 C.ar    1  UNL1        0.1682
     34 N         141.2014  144.0091  162.6446 N.ar    1  UNL1       -0.2304
     35 N         143.5471  142.8928  162.6842 N.am    1  UNL1       -0.2639
     36 C         144.7718  142.4172  161.9604 C.2     1  UNL1        0.2718
     37 O         145.8928  141.7765  162.7239 O.2     1  UNL1       -0.2707
     38 C         144.8756  142.5823  160.4731 C.3     1  UNL1        0.2898
     39 O         143.7546  143.2230  159.7096 O.3     1  UNL1       -0.4628
     40 H         143.4790  142.7844  163.6603 H       1  UNL1        0.1565
@<TRIPOS>BOND
     1    24    25    1
     2    25    13    1
     3    13    14   ar
     4    14    15   ar
     5    15    16   ar
     6    16    17   ar
     7    17    18   ar
     8    18    19   ar
     9    19    20    1
    10    19    21   ar
    11    21    12    1
    12    12     9    1
    13     9    10    1
    14     9     1    1
    15     1     2    1
    16     2     3    1
    17     3     4    1
    18     4    26    1
    19    26    28    1
    20    28    29    1
    21    29    30   ar
    22    30    31   ar
    23    31    32   ar
    24    32    33   ar
    25    33    34   ar
    26    33    35    1
    27    35    36   am
    28    36    37    2
    29    36    38    1
    30    38    39    1
    31     4     5    1
    32     5     6    1
    33     4     7    1
    34     7     8    1
    35    21    22   ar
    36    22    23   ar
    37    23    13   ar
    38    22    16   ar
    39     6     1    1
    40     8     1    1
    41    34    29   ar
    42    39    32    1
    43    10    11    1
    44    26    27    1
    45    35    40    1
@<TRIPOS>MOLECULE
*****
 40 45 0 0 0
SMALL
GASTEIGER

@<TRIPOS>ATOM
      1 C         138.1415  139.8561  162.4899 C.3     1  UNL1        0.1177
      2 C         138.3987  140.6289  161.2303 C.3     1  UNL1        0.0310
      3 C         138.2391  142.1203  161.2196 C.3     1  UNL1        0.0194
      4 C         137.8223  142.8390  162.4686 C.3     1  UNL1        0.0700
      5 C         137.5652  142.0662  163.7282 C.3     1  UNL1        0.0194
      6 C         137.7248  140.5747  163.7389 C.3     1  UNL1        0.0310
      7 C         137.8967  142.0208  162.5232 C.3     1  UNL1        0.1563
      8 O         138.0410  140.6722  162.5328 O.3     1  UNL1       -0.3548
      9 C         138.3011  138.3647  162.5006 C.3     1  UNL1        0.1396
     10 O         137.3954  137.5075  161.6669 O.3     1  UNL1       -0.3817
     11 H         137.6313  136.5745  161.7882 H       1  UNL1        0.2105
     12 C         139.3664  137.7304  163.3449 C.3     1  UNL1        0.0619
     13 C         140.2859  139.7833  167.2423 C.ar    1  UNL1        0.2250
     14 C         141.6030  140.4753  167.4330 C.ar    1  UNL1        0.0593
     15 C         142.6135  140.4831  166.3245 C.ar    1  UNL1        0.0254
     16 C         142.3070  139.7988  165.0254 C.ar    1  UNL1        0.0990
     17 N         143.3176  139.8066  163.9169 N.ar    1  UNL1       -0.2400
     18 C         143.0111  139.1223  162.6178 C.ar    1  UNL1        0.1281
     19 C         141.6940  138.4302  162.4271 C.ar    1  UNL1        0.1567
     20 F         141.3875  137.7459  161.1280 F       1  UNL1       -0.2028
     21 C         140.6834  138.4224  163.5356 C.ar    1  UNL1        0.0285
     22 C         140.9900  139.1068  164.8347 C.ar    1  UNL1        0.1002
     23 N         139.9794  139.0990  165.9432 N.ar    1  UNL1       -0.2104
     24 C         139.6251  140.3566  169.6887 C.3     1  UNL1        0.2542
     25 O         139.2754  139.7755  168.3508 O.3     1  UNL1       -0.4561
     26 N         137.6628  144.3304  162.4580 N.3     1  UNL1       -0.2926
     27 H         136.9167  144.5515  163.1175 H       1  UNL1        0.1236
     28 C         138.8251  145.2116  162.8079 C.3     1  UNL1        0.1152
     29 C         140.2055  144.6317  162.8979 C.ar    1  UNL1        0.0765
     30 C         140.8218  144.3670  164.2396 C.ar    1  UNL1        0.0193
     31 C         142.2022  143.7871  164.3297 C.ar    1  UNL1        0.0411
     32 C         142.9664  143.4718  163.0780 C.ar    1  UNL1        0.1708
     33 C         142.3501  143.7364  161.7363 C.ar    1  UNL1        0.1682
     34 N         140.9697  144.3164  161.6462 N.ar    1  UNL1       -0.2304
     35 N         143.1143  143.4211  160.4846 N.am    1  UNL1       -0.2639
     36 C         144.4947  142.8412  160.5747 C.2     1  UNL1        0.2718
     37 O         145.2588  142.5259  159.3230 O.2     1  UNL1       -0.2707
     38 C         145.1110  142.5765  161.9164 C.3     1  UNL1        0.2898
     39 O         144.3469  142.8918  163.1681 O.3     1  UNL1       -0.4628
     40 H         142.7098  143.5948  159.6040 H       1  UNL1        0.1565
@<TRIPOS>BOND
     1    24    25    1
     2    25    13    1
     3    13    14   ar
     4    14    15   ar
     5    15    16   ar
     6    16    17   ar
     7    17    18   ar
     8    18    19   ar
     9    19    20    1
    10    19    21   ar
    11    21    12    1
    12    12     9    1
    13     9    10    1
    14     9     1    1
    15     1     2    1
    16     2     3    1
    17     3     4    1
    18     4    26    1
    19    26    28    1
    20    28    29    1
    21    29    30   ar
    22    30    31   ar
    23    31    32   ar
    24    32    33   ar
    25    33    34   ar
    26    33    35    1
    27    35    36   am
    28    36    37    2
    29    36    38    1
    30    38    39    1
    31     4     5    1
    32     5     6    1
    33     4     7    1
    34     7     8    1
    35    21    22   ar
    36    22    23   ar
    37    23    13   ar
    38    22    16   ar
    39     6     1    1
    40     8     1    1
    41    34    29   ar
    42    39    32    1
    43    10    11    1
    44    26    27    1
    45    35    40    1
@<TRIPOS>MOLECULE
*****
 40 45 0 0 0
SMALL
GASTEIGER

@<TRIPOS>ATOM
      1 C         139.4159  137.8619  164.5791 C.3     1  UNL1        0.1177
      2 C         140.8724  137.5921  164.8150 C.3     1  UNL1        0.0310
      3 C         141.8044  137.4353  163.6502 C.3     1  UNL1        0.0194
      4 C         141.2798  137.5483  162.2494 C.3     1  UNL1        0.0700
      5 C         139.8233  137.8181  162.0135 C.3     1  UNL1        0.0194
      6 C         138.8913  137.9749  163.1784 C.3     1  UNL1        0.0310
      7 C         140.7307  137.6416  162.8558 C.3     1  UNL1        0.1563
      8 O         139.8880  137.7834  163.9090 O.3     1  UNL1       -0.3548
      9 C         138.4839  138.0187  165.7438 C.3     1  UNL1        0.1396
     10 O         137.7775  136.8207  166.3057 O.3     1  UNL1       -0.3817
     11 H         137.2177  137.0945  167.0491 H       1  UNL1        0.2105
     12 C         138.2583  139.3736  166.3468 C.3     1  UNL1        0.0619
     13 C         142.2849  140.4436  168.0472 C.ar    1  UNL1        0.2250
     14 C         143.0301  141.6332  167.5187 C.ar    1  UNL1        0.0593
     15 C         142.4331  142.4662  166.4234 C.ar    1  UNL1        0.0254
     16 C         141.0909  142.1096  165.8566 C.ar    1  UNL1        0.0990
     17 N         140.4939  142.9426  164.7612 N.ar    1  UNL1       -0.2400
     18 C         139.1518  142.5859  164.1945 C.ar    1  UNL1        0.1281
     19 C         138.4065  141.3962  164.7230 C.ar    1  UNL1        0.1567
     20 F         137.0643  141.0396  164.1562 F       1  UNL1       -0.2028
     21 C         139.0035  140.5632  165.8183 C.ar    1  UNL1        0.0285
     22 C         140.3457  140.9199  166.3851 C.ar    1  UNL1        0.1002
     23 N         140.9427  140.0869  167.4804 N.ar    1  UNL1       -0.2104
     24 C         142.8022  140.0752  170.5664 C.3     1  UNL1        0.2542
     25 O         142.8819  139.6106  169.1425 O.3     1  UNL1       -0.4561
     26 N         142.2118  137.3915  161.0846 N.3     1  UNL1       -0.2926
     27 H         141.7454  136.7800  160.4145 H       1  UNL1        0.1236
     28 C         142.6697  138.5996  160.3225 C.3     1  UNL1        0.1152
     29 C         143.0155  139.8619  161.0552 C.ar    1  UNL1        0.0765
     30 C         144.2980  139.9534  161.8279 C.ar    1  UNL1        0.0193
     31 C         144.6438  141.2157  162.5606 C.ar    1  UNL1        0.0411
     32 C         143.7071  142.3866  162.5207 C.ar    1  UNL1        0.1708
     33 C         142.4247  142.2952  161.7481 C.ar    1  UNL1        0.1682
     34 N         142.0789  141.0329  161.0153 N.ar    1  UNL1       -0.2304
     35 N         141.4881  143.4662  161.7082 N.am    1  UNL1       -0.2639
     36 C         141.8338  144.7285  162.4409 C.2     1  UNL1        0.2718
     37 O         140.8972  145.8995  162.4009 O.2     1  UNL1       -0.2707
     38 C         143.1163  144.8200  163.2135 C.3     1  UNL1        0.2898
     39 O         144.0530  143.6490  163.2534 O.3     1  UNL1       -0.4628
     40 H         140.6463  143.4062  161.2010 H       1  UNL1        0.1565
@<TRIPOS>BOND
     1    24    25    1
     2    25    13    1
     3    13    14   ar
     4    14    15   ar
     5    15    16   ar
     6    16    17   ar
     7    17    18   ar
     8    18    19   ar
     9    19    20    1
    10    19    21   ar
    11    21    12    1
    12    12     9    1
    13     9    10    1
    14     9     1    1
    15     1     2    1
    16     2     3    1
    17     3     4    1
    18     4    26    1
    19    26    28    1
    20    28    29    1
    21    29    30   ar
    22    30    31   ar
    23    31    32   ar
    24    32    33   ar
    25    33    34   ar
    26    33    35    1
    27    35    36   am
    28    36    37    2
    29    36    38    1
    30    38    39    1
    31     4     5    1
    32     5     6    1
    33     4     7    1
    34     7     8    1
    35    21    22   ar
    36    22    23   ar
    37    23    13   ar
    38    22    16   ar
    39     6     1    1
    40     8     1    1
    41    34    29   ar
    42    39    32    1
    43    10    11    1
    44    26    27    1
    45    35    40    1
@<TRIPOS>MOLECULE
*****
 40 45 0 0 0
SMALL
GASTEIGER

@<TRIPOS>ATOM
      1 C         140.3997  139.8903  161.0089 C.3     1  UNL1        0.1177
      2 C         141.1575  141.1809  160.9092 C.3     1  UNL1        0.0310
      3 C         142.6119  141.2267  161.2733 C.3     1  UNL1        0.0194
      4 C         143.3085  139.9818  161.7372 C.3     1  UNL1        0.0700
      5 C         142.5506  138.6912  161.8370 C.3     1  UNL1        0.0194
      6 C         141.0962  138.6455  161.4728 C.3     1  UNL1        0.0310
      7 C         142.5105  139.9075  161.5487 C.3     1  UNL1        0.1563
      8 O         141.1953  139.8661  161.2194 O.3     1  UNL1       -0.3548
      9 C         138.9453  139.8445  160.6447 C.3     1  UNL1        0.1396
     10 O         138.5318  139.4591  159.2553 O.3     1  UNL1       -0.3817
     11 H         137.5643  139.4795  159.1885 H       1  UNL1        0.2105
     12 C         137.9043  140.1841  161.6700 C.3     1  UNL1        0.0619
     13 C         138.6170  144.4194  163.0130 C.ar    1  UNL1        0.2250
     14 C         139.0228  144.6988  164.4298 C.ar    1  UNL1        0.0593
     15 C         139.1910  143.5663  165.3989 C.ar    1  UNL1        0.0254
     16 C         138.9535  142.1545  164.9513 C.ar    1  UNL1        0.0990
     17 N         139.1217  141.0220  165.9204 N.ar    1  UNL1       -0.2400
     18 C         138.8842  139.6103  165.4728 C.ar    1  UNL1        0.1281
     19 C         138.4784  139.3309  164.0559 C.ar    1  UNL1        0.1567
     20 F         138.2408  137.9191  163.6083 F       1  UNL1       -0.2028
     21 C         138.3101  140.4634  163.0868 C.ar    1  UNL1        0.0285
     22 C         138.5477  141.8752  163.5345 C.ar    1  UNL1        0.1002
     23 N         138.3794  143.0077  162.5654 N.ar    1  UNL1       -0.2104
     24 C         139.6445  146.3373  161.5931 C.3     1  UNL1        0.2542
     25 O         138.4487  145.5519  162.0439 O.3     1  UNL1       -0.4561
     26 N         144.7629  140.0276  162.1014 N.3     1  UNL1       -0.2926
     27 H         145.2242  140.6056  161.3989 H       1  UNL1        0.1236
     28 C         145.1844  140.5550  163.4409 C.3     1  UNL1        0.1152
     29 C         144.3268  140.3104  164.6469 C.ar    1  UNL1        0.0765
     30 C         144.1892  138.9231  165.2006 C.ar    1  UNL1        0.0193
     31 C         143.3316  138.6785  166.4066 C.ar    1  UNL1        0.0411
     32 C         142.6116  139.8212  167.0592 C.ar    1  UNL1        0.1708
     33 C         142.7492  141.2085  166.5056 C.ar    1  UNL1        0.1682
     34 N         143.6068  141.4532  165.2995 N.ar    1  UNL1       -0.2304
     35 N         142.0292  142.3512  167.1582 N.am    1  UNL1       -0.2639
     36 C         141.1716  142.1067  168.3642 C.2     1  UNL1        0.2718
     37 O         140.4516  143.2494  169.0168 O.2     1  UNL1       -0.2707
     38 C         141.0339  140.7193  168.9178 C.3     1  UNL1        0.2898
     39 O         141.7539  139.5766  168.2653 O.3     1  UNL1       -0.4628
     40 H         142.1195  143.2618  166.7948 H       1  UNL1        0.1565
@<TRIPOS>BOND
     1    24    25    1
     2    25    13    1
     3    13    14   ar
     4    14    15   ar
     5    15    16   ar
     6    16    17   ar
     7    17    18   ar
     8    18    19   ar
     9    19    20    1
    10    19    21   ar
    11    21    12    1
    12    12     9    1
    13     9    10    1
    14     9     1    1
    15     1     2    1
    16     2     3    1
    17     3     4    1
    18     4    26    1
    19    26    28    1
    20    28    29    1
    21    29    30   ar
    22    30    31   ar
    23    31    32   ar
    24    32    33   ar
    25    33    34   ar
    26    33    35    1
    27    35    36   am
    28    36    37    2
    29    36    38    1
    30    38    39    1
    31     4     5    1
    32     5     6    1
    33     4     7    1
    34     7     8    1
    35    21    22   ar
    36    22    23   ar
    37    23    13   ar
    38    22    16   ar
    39     6     1    1
    40     8     1    1
    41    34    29   ar
    42    39    32    1
    43    10    11    1
    44    26    27    1
    45    35    40    1
