@<TRIPOS>MOLECULE
*****
 31 35 0 0 0
SMALL
GASTEIGER

@<TRIPOS>ATOM
      1 C         141.7749  138.7622  161.6028 C.ar    1  UNL1        0.0681
      2 C         141.1906  139.4687  160.4156 C.ar    1  UNL1        0.0208
      3 C         141.6259  139.0929  159.0302 C.ar    1  UNL1        0.0384
      4 C         142.6454  138.0107  158.8320 C.ar    1  UNL1        0.1385
      5 C         143.2296  137.3042  160.0193 C.ar    1  UNL1        0.0384
      6 C         142.7944  137.6799  161.4046 C.ar    1  UNL1        0.0208
      7 C         143.3319  140.7961  163.1644 C.3     1  UNL1        0.0723
      8 C         142.1181  140.1549  163.7690 C.ar    1  UNL1        0.1268
      9 N         141.6828  140.5307  165.1544 N.ar    1  UNL1       -0.2318
     10 C         140.4690  139.8895  165.7590 C.ar    1  UNL1        0.0896
     11 C         140.0337  140.2653  167.1444 C.ar    1  UNL1        0.0512
     12 C         138.8199  139.6242  167.7490 C.ar    1  UNL1        0.1689
     13 F         138.3846  139.9999  169.1344 F       1  UNL1       -0.2017
     14 C         138.0414  138.6072  166.9682 C.ar    1  UNL1        0.1676
     15 F         136.8275  137.9660  167.5728 F       1  UNL1       -0.2018
     16 C         138.4766  138.2314  165.5828 C.ar    1  UNL1        0.0382
     17 C         139.6904  138.8726  164.9782 C.ar    1  UNL1        0.0766
     18 C         140.1257  138.4968  163.5928 C.ar    1  UNL1        0.2670
     19 O         139.3472  137.4798  162.8120 O.2     1  UNL1       -0.2665
     20 N         141.3395  139.1380  162.9882 N.ar    1  UNL1       -0.2626
     21 O         143.0807  137.6349  157.4466 O.3     1  UNL1       -0.4791
     22 C         142.7014  136.2999  156.8775 C.3     1  UNL1        0.1687
     23 C         141.6000  136.2023  155.8638 C.3     1  UNL1        0.0609
     24 C         141.2207  134.8673  155.2947 C.3     1  UNL1        0.0758
     25 N         141.9427  133.6299  155.7393 N.3     1  UNL1       -0.2737
     26 C         143.0440  133.7276  156.7529 C.3     1  UNL1        0.0758
     27 C         143.4234  135.0626  157.3220 C.3     1  UNL1        0.0609
     28 C         141.5634  132.2949  155.1702 C.3     1  UNL1        0.0575
     29 C         140.7464  131.8343  153.9995 C.3     1  UNL1        0.0160
     30 C         141.0269  130.4070  154.3654 C.3     1  UNL1        0.0028
     31 C         141.8439  130.8675  155.5360 C.3     1  UNL1        0.0160
@<TRIPOS>BOND
     1     7     8    1
     2     8     9   ar
     3     9    10   ar
     4    10    11   ar
     5    11    12   ar
     6    12    13    1
     7    12    14   ar
     8    14    15    1
     9    14    16   ar
    10    16    17   ar
    11    17    18   ar
    12    18    19    2
    13    18    20   ar
    14    20     1    1
    15     1     2   ar
    16     2     3   ar
    17     3     4   ar
    18     4    21    1
    19    21    22    1
    20    22    23    1
    21    23    24    1
    22    24    25    1
    23    25    28    1
    24    28    29    1
    25    29    30    1
    26    30    31    1
    27    25    26    1
    28    26    27    1
    29     4     5   ar
    30     5     6   ar
    31    20     8   ar
    32     6     1   ar
    33    17    10   ar
    34    27    22    1
    35    31    28    1
@<TRIPOS>MOLECULE
*****
 31 35 0 0 0
SMALL
GASTEIGER

@<TRIPOS>ATOM
      1 C         140.4255  139.2774  164.2549 C.ar    1  UNL1        0.0681
      2 C         141.3255  138.1216  163.9326 C.ar    1  UNL1        0.0208
      3 C         141.5339  137.7085  162.5057 C.ar    1  UNL1        0.0384
      4 C         140.8422  138.4512  161.4013 C.ar    1  UNL1        0.1385
      5 C         139.9421  139.6071  161.7237 C.ar    1  UNL1        0.0384
      6 C         139.7338  140.0202  163.1505 C.ar    1  UNL1        0.0208
      7 C         138.2621  137.9920  165.8881 C.3     1  UNL1        0.0723
      8 C         139.1355  139.0478  166.4984 C.ar    1  UNL1        0.1268
      9 N         138.9271  139.4609  167.9253 N.ar    1  UNL1       -0.2318
     10 C         139.8005  140.5167  168.5356 C.ar    1  UNL1        0.0896
     11 C         139.5922  140.9298  169.9625 C.ar    1  UNL1        0.0512
     12 C         140.4656  141.9855  170.5728 C.ar    1  UNL1        0.1689
     13 F         140.2573  142.3986  171.9997 F       1  UNL1       -0.2017
     14 C         141.5473  142.6283  169.7562 C.ar    1  UNL1        0.1676
     15 F         142.4207  143.6841  170.3665 F       1  UNL1       -0.2018
     16 C         141.7556  142.2152  168.3293 C.ar    1  UNL1        0.0382
     17 C         140.8823  141.1594  167.7191 C.ar    1  UNL1        0.0766
     18 C         141.0906  140.7463  166.2921 C.ar    1  UNL1        0.2670
     19 O         142.1723  141.3891  165.4756 O.2     1  UNL1       -0.2665
     20 N         140.2172  139.6906  165.6819 N.ar    1  UNL1       -0.2626
     21 O         141.0505  138.0381  159.9744 O.3     1  UNL1       -0.4791
     22 C         142.0947  138.7200  159.1410 C.3     1  UNL1        0.1687
     23 C         142.9673  139.7775  159.7497 C.3     1  UNL1        0.0609
     24 C         144.0116  140.4594  158.9163 C.3     1  UNL1        0.0758
     25 N         144.1833  140.0838  157.4742 N.3     1  UNL1       -0.2737
     26 C         143.3107  139.0264  156.8656 C.3     1  UNL1        0.0758
     27 C         142.2664  138.3445  157.6990 C.3     1  UNL1        0.0609
     28 C         145.2275  140.7657  156.6409 C.3     1  UNL1        0.0575
     29 C         145.9216  140.4556  155.3477 C.3     1  UNL1        0.0160
     30 C         146.7043  141.7301  155.4623 C.3     1  UNL1        0.0028
     31 C         146.0103  142.0401  156.7553 C.3     1  UNL1        0.0160
@<TRIPOS>BOND
     1     7     8    1
     2     8     9   ar
     3     9    10   ar
     4    10    11   ar
     5    11    12   ar
     6    12    13    1
     7    12    14   ar
     8    14    15    1
     9    14    16   ar
    10    16    17   ar
    11    17    18   ar
    12    18    19    2
    13    18    20   ar
    14    20     1    1
    15     1     2   ar
    16     2     3   ar
    17     3     4   ar
    18     4    21    1
    19    21    22    1
    20    22    23    1
    21    23    24    1
    22    24    25    1
    23    25    28    1
    24    28    29    1
    25    29    30    1
    26    30    31    1
    27    25    26    1
    28    26    27    1
    29     4     5   ar
    30     5     6   ar
    31    20     8   ar
    32     6     1   ar
    33    17    10   ar
    34    27    22    1
    35    31    28    1
@<TRIPOS>MOLECULE
*****
 31 35 0 0 0
SMALL
GASTEIGER

@<TRIPOS>ATOM
      1 C         139.1285  140.2751  163.8642 C.ar    1  UNL1        0.0681
      2 C         140.2470  139.7787  162.9968 C.ar    1  UNL1        0.0208
      3 C         140.0606  139.6881  161.5112 C.ar    1  UNL1        0.0384
      4 C         138.7557  140.0941  160.8930 C.ar    1  UNL1        0.1385
      5 C         137.6371  140.5905  161.7604 C.ar    1  UNL1        0.0384
      6 C         137.8235  140.6811  163.2460 C.ar    1  UNL1        0.0208
      7 C         138.4585  137.9261  165.6059 C.3     1  UNL1        0.0723
      8 C         138.9799  139.1911  166.2207 C.ar    1  UNL1        0.1268
      9 N         139.1664  139.2816  167.7063 N.ar    1  UNL1       -0.2318
     10 C         139.6878  140.5466  168.3211 C.ar    1  UNL1        0.0896
     11 C         139.8742  140.6371  169.8067 C.ar    1  UNL1        0.0512
     12 C         140.3956  141.9020  170.4215 C.ar    1  UNL1        0.1689
     13 F         140.5821  141.9926  171.9071 F       1  UNL1       -0.2017
     14 C         140.7306  143.0765  169.5506 C.ar    1  UNL1        0.1676
     15 F         141.2521  144.3415  170.1654 F       1  UNL1       -0.2018
     16 C         140.5442  142.9861  168.0650 C.ar    1  UNL1        0.0382
     17 C         140.0228  141.7211  167.4503 C.ar    1  UNL1        0.0766
     18 C         139.8363  141.6306  165.9646 C.ar    1  UNL1        0.2670
     19 O         140.1713  142.8051  165.0938 O.2     1  UNL1       -0.2665
     20 N         139.3149  140.3656  165.3499 N.ar    1  UNL1       -0.2626
     21 O         138.5692  140.0036  159.4074 O.3     1  UNL1       -0.4791
     22 C         138.6856  141.2361  158.5604 C.3     1  UNL1        0.1687
     23 C         137.6091  141.5703  157.5706 C.3     1  UNL1        0.0609
     24 C         137.7255  142.8028  156.7237 C.3     1  UNL1        0.0758
     25 N         138.9182  143.7012  156.8666 N.3     1  UNL1       -0.2737
     26 C         139.9946  143.3670  157.8564 C.3     1  UNL1        0.0758
     27 C         139.8782  142.1344  158.7033 C.3     1  UNL1        0.0609
     28 C         139.0346  144.9337  156.0196 C.3     1  UNL1        0.0575
     29 C         140.0686  146.0061  155.8437 C.3     1  UNL1        0.0160
     30 C         139.1991  146.6768  154.8219 C.3     1  UNL1        0.0028
     31 C         138.1652  145.6045  154.9978 C.3     1  UNL1        0.0160
@<TRIPOS>BOND
     1     7     8    1
     2     8     9   ar
     3     9    10   ar
     4    10    11   ar
     5    11    12   ar
     6    12    13    1
     7    12    14   ar
     8    14    15    1
     9    14    16   ar
    10    16    17   ar
    11    17    18   ar
    12    18    19    2
    13    18    20   ar
    14    20     1    1
    15     1     2   ar
    16     2     3   ar
    17     3     4   ar
    18     4    21    1
    19    21    22    1
    20    22    23    1
    21    23    24    1
    22    24    25    1
    23    25    28    1
    24    28    29    1
    25    29    30    1
    26    30    31    1
    27    25    26    1
    28    26    27    1
    29     4     5   ar
    30     5     6   ar
    31    20     8   ar
    32     6     1   ar
    33    17    10   ar
    34    27    22    1
    35    31    28    1
@<TRIPOS>MOLECULE
*****
 31 35 0 0 0
SMALL
GASTEIGER

@<TRIPOS>ATOM
      1 C         141.3685  138.8704  161.7197 C.ar    1  UNL1        0.0681
      2 C         142.2039  137.6619  161.4168 C.ar    1  UNL1        0.0208
      3 C         142.8722  137.5279  160.0806 C.ar    1  UNL1        0.0384
      4 C         142.7050  138.6022  159.0473 C.ar    1  UNL1        0.1385
      5 C         141.8696  139.8106  159.3502 C.ar    1  UNL1        0.0384
      6 C         141.2013  139.9447  160.6864 C.ar    1  UNL1        0.0208
      7 C         138.5153  138.0093  162.0629 C.3     1  UNL1        0.0723
      8 C         139.2736  138.5739  163.2275 C.ar    1  UNL1        0.1268
      9 N         138.6053  138.7079  164.5637 N.ar    1  UNL1       -0.2318
     10 C         139.3636  139.2725  165.7283 C.ar    1  UNL1        0.0896
     11 C         138.6953  139.4065  167.0645 C.ar    1  UNL1        0.0512
     12 C         139.4536  139.9710  168.2290 C.ar    1  UNL1        0.1689
     13 F         138.7853  140.1051  169.5653 F       1  UNL1       -0.2017
     14 C         140.8802  140.4016  168.0574 C.ar    1  UNL1        0.1676
     15 F         141.6385  140.9661  169.2221 F       1  UNL1       -0.2018
     16 C         141.5485  140.2675  166.7213 C.ar    1  UNL1        0.0382
     17 C         140.7902  139.7030  165.5567 C.ar    1  UNL1        0.0766
     18 C         141.4585  139.5690  164.2205 C.ar    1  UNL1        0.2670
     19 O         142.8851  139.9995  164.0488 O.2     1  UNL1       -0.2665
     20 N         140.7002  139.0044  163.0559 N.ar    1  UNL1       -0.2626
     21 O         143.3733  138.4682  157.7111 O.3     1  UNL1       -0.4791
     22 C         142.8994  137.4313  156.7362 C.3     1  UNL1        0.1687
     23 C         141.4313  137.1692  156.5746 C.3     1  UNL1        0.0609
     24 C         140.9574  136.1324  155.5997 C.3     1  UNL1        0.0758
     25 N         141.9516  135.3577  154.7864 N.3     1  UNL1       -0.2737
     26 C         143.4197  135.6198  154.9480 C.3     1  UNL1        0.0758
     27 C         143.8935  136.6566  155.9229 C.3     1  UNL1        0.0609
     28 C         141.4778  134.3209  153.8115 C.3     1  UNL1        0.0575
     29 C         140.8056  134.3541  152.4708 C.3     1  UNL1        0.0160
     30 C         140.8076  132.8546  152.4328 C.3     1  UNL1        0.0028
     31 C         141.4796  132.8214  153.7733 C.3     1  UNL1        0.0160
@<TRIPOS>BOND
     1     7     8    1
     2     8     9   ar
     3     9    10   ar
     4    10    11   ar
     5    11    12   ar
     6    12    13    1
     7    12    14   ar
     8    14    15    1
     9    14    16   ar
    10    16    17   ar
    11    17    18   ar
    12    18    19    2
    13    18    20   ar
    14    20     1    1
    15     1     2   ar
    16     2     3   ar
    17     3     4   ar
    18     4    21    1
    19    21    22    1
    20    22    23    1
    21    23    24    1
    22    24    25    1
    23    25    28    1
    24    28    29    1
    25    29    30    1
    26    30    31    1
    27    25    26    1
    28    26    27    1
    29     4     5   ar
    30     5     6   ar
    31    20     8   ar
    32     6     1   ar
    33    17    10   ar
    34    27    22    1
    35    31    28    1
@<TRIPOS>MOLECULE
*****
 31 35 0 0 0
SMALL
GASTEIGER

@<TRIPOS>ATOM
      1 C         141.6453  139.6771  162.7986 C.ar    1  UNL1        0.0681
      2 C         141.9244  140.9280  162.0192 C.ar    1  UNL1        0.0208
      3 C         141.8022  140.9230  160.5242 C.ar    1  UNL1        0.0384
      4 C         141.4010  139.6673  159.8087 C.ar    1  UNL1        0.1385
      5 C         141.1220  138.4164  160.5881 C.ar    1  UNL1        0.0384
      6 C         141.2441  138.4214  162.0831 C.ar    1  UNL1        0.0208
      7 C         144.3192  139.2390  164.0865 C.3     1  UNL1        0.0723
      8 C         143.1044  139.4630  164.9377 C.ar    1  UNL1        0.1268
      9 N         143.2266  139.4680  166.4326 N.ar    1  UNL1       -0.2318
     10 C         142.0119  139.6920  167.2837 C.ar    1  UNL1        0.0896
     11 C         142.1341  139.6970  168.7787 C.ar    1  UNL1        0.0512
     12 C         140.9194  139.9211  169.6297 C.ar    1  UNL1        0.1689
     13 F         141.0416  139.9260  171.1248 F       1  UNL1       -0.2017
     14 C         139.5825  140.1401  168.9858 C.ar    1  UNL1        0.1676
     15 F         138.3678  140.3642  169.8369 F       1  UNL1       -0.2018
     16 C         139.4603  140.1352  167.4908 C.ar    1  UNL1        0.0382
     17 C         140.6750  139.9111  166.6398 C.ar    1  UNL1        0.0766
     18 C         140.5528  139.9061  165.1447 C.ar    1  UNL1        0.2670
     19 O         139.2159  140.1252  164.5008 O.2     1  UNL1       -0.2665
     20 N         141.7675  139.6821  164.2937 N.ar    1  UNL1       -0.2626
     21 O         141.2788  139.6623  158.3136 O.3     1  UNL1       -0.4791
     22 C         141.4283  138.3780  157.5532 C.3     1  UNL1        0.1687
     23 C         142.7101  137.6030  157.6346 C.3     1  UNL1        0.0609
     24 C         142.8595  136.3187  156.8742 C.3     1  UNL1        0.0758
     25 N         141.7272  135.8094  156.0324 N.3     1  UNL1       -0.2737
     26 C         140.4455  136.5844  155.9510 C.3     1  UNL1        0.0758
     27 C         140.2961  137.8687  156.7115 C.3     1  UNL1        0.0609
     28 C         141.8766  134.5251  155.2720 C.3     1  UNL1        0.0575
     29 C         142.2248  134.1637  153.8583 C.3     1  UNL1        0.0160
     30 C         142.0880  132.7088  154.1966 C.3     1  UNL1        0.0028
     31 C         141.7398  133.0701  155.6101 C.3     1  UNL1        0.0160
@<TRIPOS>BOND
     1     7     8    1
     2     8     9   ar
     3     9    10   ar
     4    10    11   ar
     5    11    12   ar
     6    12    13    1
     7    12    14   ar
     8    14    15    1
     9    14    16   ar
    10    16    17   ar
    11    17    18   ar
    12    18    19    2
    13    18    20   ar
    14    20     1    1
    15     1     2   ar
    16     2     3   ar
    17     3     4   ar
    18     4    21    1
    19    21    22    1
    20    22    23    1
    21    23    24    1
    22    24    25    1
    23    25    28    1
    24    28    29    1
    25    29    30    1
    26    30    31    1
    27    25    26    1
    28    26    27    1
    29     4     5   ar
    30     5     6   ar
    31    20     8   ar
    32     6     1   ar
    33    17    10   ar
    34    27    22    1
    35    31    28    1
@<TRIPOS>MOLECULE
*****
 31 35 0 0 0
SMALL
GASTEIGER

@<TRIPOS>ATOM
      1 C         142.0145  138.7476  159.7290 C.ar    1  UNL1        0.0681
      2 C         142.5580  137.9307  160.8636 C.ar    1  UNL1        0.0208
      3 C         141.6739  137.5734  162.0214 C.ar    1  UNL1        0.0384
      4 C         140.2462  138.0330  162.0447 C.ar    1  UNL1        0.1385
      5 C         139.7027  138.8499  160.9101 C.ar    1  UNL1        0.0384
      6 C         140.5868  139.2072  159.7522 C.ar    1  UNL1        0.0208
      7 C         142.0399  137.0242  157.2735 C.3     1  UNL1        0.0723
      8 C         142.9114  138.2432  157.3434 C.ar    1  UNL1        0.1268
      9 N         143.7955  138.6004  156.1855 N.ar    1  UNL1       -0.2318
     10 C         144.6670  139.8193  156.2553 C.ar    1  UNL1        0.0896
     11 C         145.5511  140.1765  155.0975 C.ar    1  UNL1        0.0512
     12 C         146.4225  141.3954  155.1674 C.ar    1  UNL1        0.1689
     13 F         147.3067  141.7527  154.0095 F       1  UNL1       -0.2017
     14 C         146.4098  142.2571  156.3951 C.ar    1  UNL1        0.1676
     15 F         147.2812  143.4760  156.4650 F       1  UNL1       -0.2018
     16 C         145.5256  141.8999  157.5530 C.ar    1  UNL1        0.0382
     17 C         144.6542  140.6810  157.4831 C.ar    1  UNL1        0.0766
     18 C         143.7700  140.3237  158.6410 C.ar    1  UNL1        0.2670
     19 O         143.7573  141.1854  159.8687 O.2     1  UNL1       -0.2665
     20 N         142.8987  139.1048  158.5711 N.ar    1  UNL1       -0.2626
     21 O         139.3620  137.6758  163.2026 O.3     1  UNL1       -0.4791
     22 C         139.4593  138.4459  164.4861 C.3     1  UNL1        0.1687
     23 C         140.5286  139.4837  164.6588 C.3     1  UNL1        0.0609
     24 C         140.6259  140.2539  165.9423 C.3     1  UNL1        0.0758
     25 N         139.6539  139.9863  167.0531 N.3     1  UNL1       -0.2737
     26 C         138.5846  138.9486  166.8803 C.3     1  UNL1        0.0758
     27 C         138.4874  138.1784  165.5968 C.3     1  UNL1        0.0609
     28 C         139.7511  140.7564  168.3366 C.3     1  UNL1        0.0575
     29 C         140.4323  142.0224  168.7649 C.3     1  UNL1        0.0160
     30 C         139.8887  141.8456  170.1517 C.3     1  UNL1        0.0028
     31 C         139.2076  140.5797  169.7234 C.3     1  UNL1        0.0160
@<TRIPOS>BOND
     1     7     8    1
     2     8     9   ar
     3     9    10   ar
     4    10    11   ar
     5    11    12   ar
     6    12    13    1
     7    12    14   ar
     8    14    15    1
     9    14    16   ar
    10    16    17   ar
    11    17    18   ar
    12    18    19    2
    13    18    20   ar
    14    20     1    1
    15     1     2   ar
    16     2     3   ar
    17     3     4   ar
    18     4    21    1
    19    21    22    1
    20    22    23    1
    21    23    24    1
    22    24    25    1
    23    25    28    1
    24    28    29    1
    25    29    30    1
    26    30    31    1
    27    25    26    1
    28    26    27    1
    29     4     5   ar
    30     5     6   ar
    31    20     8   ar
    32     6     1   ar
    33    17    10   ar
    34    27    22    1
    35    31    28    1
@<TRIPOS>MOLECULE
*****
 31 35 0 0 0
SMALL
GASTEIGER

@<TRIPOS>ATOM
      1 C         140.2021  140.2813  158.7369 C.ar    1  UNL1        0.0681
      2 C         141.3168  140.5894  157.7816 C.ar    1  UNL1        0.0208
      3 C         141.7056  139.5880  156.7347 C.ar    1  UNL1        0.0384
      4 C         140.9797  138.2786  156.6431 C.ar    1  UNL1        0.1385
      5 C         139.8650  137.9705  157.5984 C.ar    1  UNL1        0.0384
      6 C         139.4762  138.9719  158.6453 C.ar    1  UNL1        0.0208
      7 C         138.0996  142.3362  158.1396 C.3     1  UNL1        0.0723
      8 C         138.7621  142.3102  159.4852 C.ar    1  UNL1        0.1268
      9 N         138.3733  143.3116  160.5321 N.ar    1  UNL1       -0.2318
     10 C         139.0358  143.2857  161.8776 C.ar    1  UNL1        0.0896
     11 C         138.6470  144.2871  162.9245 C.ar    1  UNL1        0.0512
     12 C         139.3095  144.2611  164.2700 C.ar    1  UNL1        0.1689
     13 F         138.9207  145.2626  165.3169 F       1  UNL1       -0.2017
     14 C         140.3608  143.2337  164.5686 C.ar    1  UNL1        0.1676
     15 F         141.0233  143.2077  165.9142 F       1  UNL1       -0.2018
     16 C         140.7496  142.2322  163.5218 C.ar    1  UNL1        0.0382
     17 C         140.0871  142.2582  162.1763 C.ar    1  UNL1        0.0766
     18 C         140.4758  141.2568  161.1293 C.ar    1  UNL1        0.2670
     19 O         141.5271  140.2293  161.4280 O.2     1  UNL1       -0.2665
     20 N         139.8134  141.2828  159.7838 N.ar    1  UNL1       -0.2626
     21 O         141.3685  137.2771  155.5962 O.3     1  UNL1       -0.4791
     22 C         141.9456  135.9534  156.0021 C.3     1  UNL1        0.1687
     23 C         143.0130  135.8915  157.0542 C.3     1  UNL1        0.0609
     24 C         143.5901  134.5678  157.4602 C.3     1  UNL1        0.0758
     25 N         143.0998  133.3060  156.8140 N.3     1  UNL1       -0.2737
     26 C         142.0324  133.3679  155.7619 C.3     1  UNL1        0.0758
     27 C         141.4553  134.6916  155.3560 C.3     1  UNL1        0.0609
     28 C         143.6769  131.9823  157.2199 C.3     1  UNL1        0.0575
     29 C         143.2357  130.5531  157.1061 C.3     1  UNL1        0.0160
     30 C         144.4930  130.1104  157.7940 C.3     1  UNL1        0.0028
     31 C         144.9341  131.5394  157.9078 C.3     1  UNL1        0.0160
@<TRIPOS>BOND
     1     7     8    1
     2     8     9   ar
     3     9    10   ar
     4    10    11   ar
     5    11    12   ar
     6    12    13    1
     7    12    14   ar
     8    14    15    1
     9    14    16   ar
    10    16    17   ar
    11    17    18   ar
    12    18    19    2
    13    18    20   ar
    14    20     1    1
    15     1     2   ar
    16     2     3   ar
    17     3     4   ar
    18     4    21    1
    19    21    22    1
    20    22    23    1
    21    23    24    1
    22    24    25    1
    23    25    28    1
    24    28    29    1
    25    29    30    1
    26    30    31    1
    27    25    26    1
    28    26    27    1
    29     4     5   ar
    30     5     6   ar
    31    20     8   ar
    32     6     1   ar
    33    17    10   ar
    34    27    22    1
    35    31    28    1
@<TRIPOS>MOLECULE
*****
 31 35 0 0 0
SMALL
GASTEIGER

@<TRIPOS>ATOM
      1 C         142.0903  142.3111  163.6017 C.ar    1  UNL1        0.0681
      2 C         141.4003  141.5538  162.5062 C.ar    1  UNL1        0.0208
      3 C         141.8168  141.7533  161.0790 C.ar    1  UNL1        0.0384
      4 C         142.9232  142.7102  160.7475 C.ar    1  UNL1        0.1385
      5 C         143.6132  143.4676  161.8431 C.ar    1  UNL1        0.0384
      6 C         143.1968  143.2681  163.2702 C.ar    1  UNL1        0.0208
      7 C         140.0712  144.1483  164.8459 C.3     1  UNL1        0.0723
      8 C         140.6642  143.0302  165.6510 C.ar    1  UNL1        0.1268
      9 N         140.2477  142.8307  167.0781 N.ar    1  UNL1       -0.2318
     10 C         140.8407  141.7125  167.8832 C.ar    1  UNL1        0.0896
     11 C         140.4242  141.5130  169.3103 C.ar    1  UNL1        0.0512
     12 C         141.0172  140.3949  170.1153 C.ar    1  UNL1        0.1689
     13 F         140.6006  140.1953  171.5425 F       1  UNL1       -0.2017
     14 C         142.0267  139.4763  169.4932 C.ar    1  UNL1        0.1676
     15 F         142.6198  138.3581  170.2983 F       1  UNL1       -0.2018
     16 C         142.4433  139.6758  168.0661 C.ar    1  UNL1        0.0382
     17 C         141.8502  140.7939  167.2611 C.ar    1  UNL1        0.0766
     18 C         142.2668  140.9935  165.8339 C.ar    1  UNL1        0.2670
     19 O         143.2763  140.0749  165.2118 O.2     1  UNL1       -0.2665
     20 N         141.6738  142.1116  165.0289 N.ar    1  UNL1       -0.2626
     21 O         143.3398  142.9098  159.3203 O.3     1  UNL1       -0.4791
     22 C         142.5759  143.8552  158.4413 C.3     1  UNL1        0.1687
     23 C         141.5442  144.7662  159.0379 C.3     1  UNL1        0.0609
     24 C         140.7804  145.7117  158.1589 C.3     1  UNL1        0.0758
     25 N         141.0482  145.7462  156.6833 N.3     1  UNL1       -0.2737
     26 C         142.0799  144.8352  156.0869 C.3     1  UNL1        0.0758
     27 C         142.8437  143.8898  156.9659 C.3     1  UNL1        0.0609
     28 C         140.2844  146.6916  155.8043 C.3     1  UNL1        0.0575
     29 C         140.3923  147.1324  154.3746 C.3     1  UNL1        0.0160
     30 C         139.2042  148.0287  154.5613 C.3     1  UNL1        0.0028
     31 C         139.0962  147.5880  155.9909 C.3     1  UNL1        0.0160
@<TRIPOS>BOND
     1     7     8    1
     2     8     9   ar
     3     9    10   ar
     4    10    11   ar
     5    11    12   ar
     6    12    13    1
     7    12    14   ar
     8    14    15    1
     9    14    16   ar
    10    16    17   ar
    11    17    18   ar
    12    18    19    2
    13    18    20   ar
    14    20     1    1
    15     1     2   ar
    16     2     3   ar
    17     3     4   ar
    18     4    21    1
    19    21    22    1
    20    22    23    1
    21    23    24    1
    22    24    25    1
    23    25    28    1
    24    28    29    1
    25    29    30    1
    26    30    31    1
    27    25    26    1
    28    26    27    1
    29     4     5   ar
    30     5     6   ar
    31    20     8   ar
    32     6     1   ar
    33    17    10   ar
    34    27    22    1
    35    31    28    1
@<TRIPOS>MOLECULE
*****
 31 35 0 0 0
SMALL
GASTEIGER

@<TRIPOS>ATOM
      1 C         140.6123  138.6666  158.5368 C.ar    1  UNL1        0.0681
      2 C         142.0837  138.3789  158.5851 C.ar    1  UNL1        0.0208
      3 C         142.6929  137.4201  157.6055 C.ar    1  UNL1        0.0384
      4 C         141.8308  136.7490  156.5778 C.ar    1  UNL1        0.1385
      5 C         140.3594  137.0367  156.5295 C.ar    1  UNL1        0.0384
      6 C         139.7502  137.9955  157.5090 C.ar    1  UNL1        0.0208
      7 C         140.1130  141.5142  157.7358 C.3     1  UNL1        0.0723
      8 C         139.7535  141.0493  159.1159 C.ar    1  UNL1        0.1268
      9 N         139.1443  142.0081  160.0954 N.ar    1  UNL1       -0.2318
     10 C         138.7847  141.5431  161.4755 C.ar    1  UNL1        0.0896
     11 C         138.1755  142.5020  162.4550 C.ar    1  UNL1        0.0512
     12 C         137.8160  142.0370  163.8350 C.ar    1  UNL1        0.1689
     13 F         137.2068  142.9959  164.8146 F       1  UNL1       -0.2017
     14 C         138.0657  140.6132  164.2355 C.ar    1  UNL1        0.1676
     15 F         137.7061  140.1482  165.6156 F       1  UNL1       -0.2018
     16 C         138.6749  139.6544  163.2560 C.ar    1  UNL1        0.0382
     17 C         139.0344  140.1193  161.8760 C.ar    1  UNL1        0.0766
     18 C         139.6436  139.1605  160.8964 C.ar    1  UNL1        0.2670
     19 O         139.8933  137.7367  161.2969 O.2     1  UNL1       -0.2665
     20 N         140.0031  139.6254  159.5164 N.ar    1  UNL1       -0.2626
     21 O         142.4400  135.7901  155.5982 O.3     1  UNL1       -0.4791
     22 C         142.7272  134.3771  156.0115 C.3     1  UNL1        0.1687
     23 C         143.8674  134.0847  156.9414 C.3     1  UNL1        0.0609
     24 C         144.1546  132.6716  157.3547 C.3     1  UNL1        0.0758
     25 N         143.3016  131.5510  156.8381 N.3     1  UNL1       -0.2737
     26 C         142.1616  131.8435  155.9083 C.3     1  UNL1        0.0758
     27 C         141.8744  133.2565  155.4949 C.3     1  UNL1        0.0609
     28 C         143.5888  130.1380  157.2514 C.3     1  UNL1        0.0575
     29 C         144.5324  129.4867  158.2187 C.3     1  UNL1        0.0160
     30 C         143.9950  128.1396  157.8359 C.3     1  UNL1        0.0028
     31 C         143.0515  128.7908  156.8687 C.3     1  UNL1        0.0160
@<TRIPOS>BOND
     1     7     8    1
     2     8     9   ar
     3     9    10   ar
     4    10    11   ar
     5    11    12   ar
     6    12    13    1
     7    12    14   ar
     8    14    15    1
     9    14    16   ar
    10    16    17   ar
    11    17    18   ar
    12    18    19    2
    13    18    20   ar
    14    20     1    1
    15     1     2   ar
    16     2     3   ar
    17     3     4   ar
    18     4    21    1
    19    21    22    1
    20    22    23    1
    21    23    24    1
    22    24    25    1
    23    25    28    1
    24    28    29    1
    25    29    30    1
    26    30    31    1
    27    25    26    1
    28    26    27    1
    29     4     5   ar
    30     5     6   ar
    31    20     8   ar
    32     6     1   ar
    33    17    10   ar
    34    27    22    1
    35    31    28    1
