@<TRIPOS>MOLECULE
*****
 21 23 0 0 0
SMALL
GASTEIGER

@<TRIPOS>ATOM
      1 N         141.0442  141.4003  166.9948 N.3     1  UNL1       -0.2700
      2 C         141.3764  142.1946  168.2233 C.3     1  UNL1        0.0628
      3 C         140.3850  143.1779  168.7713 C.3     1  UNL1        0.0481
      4 C         140.7171  143.9722  169.9996 C.3     1  UNL1        0.1435
      5 O         142.0405  143.7831  170.6800 O.3     1  UNL1       -0.3537
      6 C         143.0318  142.7997  170.1319 C.3     1  UNL1        0.1435
      7 C         142.6997  142.0055  168.9036 C.3     1  UNL1        0.0481
      8 C         139.8905  140.4419  167.0106 C.3     1  UNL1        0.0748
      9 C         139.1678  139.9121  165.8077 C.3     1  UNL1        0.0344
     10 C         138.0875  138.9878  166.2857 C.3     1  UNL1        0.0700
     11 N         138.1424  138.9464  167.7841 N.3     1  UNL1       -0.2963
     12 C         139.2567  139.8451  168.2321 C.3     1  UNL1        0.0847
     13 H         138.3199  137.9921  168.0978 H       1  UNL1        0.1233
     14 C         141.8659  141.5645  165.7507 C.3     1  UNL1        0.0988
     15 C         144.4514  142.9037  165.0285 C.3     1  UNL1        0.0307
     16 C         143.1464  143.5387  164.6494 C.ar    1  UNL1       -0.0245
     17 C         143.1342  144.8433  163.9093 C.ar    1  UNL1       -0.0045
     18 C         141.8291  145.4784  163.5303 C.ar    1  UNL1       -0.0003
     19 C         140.5364  144.8088  163.8913 C.ar    1  UNL1       -0.0003
     20 C         140.5487  143.5042  164.6315 C.ar    1  UNL1       -0.0032
     21 C         141.8537  142.8692  165.0105 C.ar    1  UNL1       -0.0101
@<TRIPOS>BOND
     1    15    16    1
     2    16    17   ar
     3    17    18   ar
     4    18    19   ar
     5    19    20   ar
     6    20    21   ar
     7    21    14    1
     8    14     1    1
     9     1     2    1
    10     2     3    1
    11     3     4    1
    12     4     5    1
    13     5     6    1
    14     6     7    1
    15     8     1    1
    16     8     9    1
    17     9    10    1
    18    10    11    1
    19    11    12    1
    20    21    16   ar
    21     7     2    1
    22    12     8    1
    23    11    13    1
@<TRIPOS>MOLECULE
*****
 21 23 0 0 0
SMALL
GASTEIGER

@<TRIPOS>ATOM
      1 N         140.9270  141.9644  166.5353 N.3     1  UNL1       -0.2700
      2 C         141.3201  142.4470  167.9002 C.3     1  UNL1        0.0628
      3 C         140.3565  143.2577  168.7153 C.3     1  UNL1        0.0481
      4 C         140.7495  143.7403  170.0800 C.3     1  UNL1        0.1435
      5 O         142.1059  143.4121  170.6298 O.3     1  UNL1       -0.3537
      6 C         143.0695  142.6014  169.8147 C.3     1  UNL1        0.1435
      7 C         142.6765  142.1188  168.4499 C.3     1  UNL1        0.0481
      8 C         139.8184  140.9655  166.3835 C.3     1  UNL1        0.0748
      9 C         139.5031  139.8473  167.3322 C.3     1  UNL1        0.0344
     10 C         138.3202  139.1001  166.7913 C.3     1  UNL1        0.0700
     11 N         137.9045  139.7565  165.5083 N.3     1  UNL1       -0.2963
     12 C         138.8304  140.9094  165.2562 C.3     1  UNL1        0.0847
     13 H         136.9451  140.0939  165.5871 H       1  UNL1        0.1233
     14 C         141.6427  142.4808  165.3224 C.3     1  UNL1        0.0988
     15 C         143.9378  144.2096  164.4598 C.3     1  UNL1        0.0307
     16 C         144.0813  142.7165  164.4577 C.ar    1  UNL1       -0.0245
     17 C         145.3723  142.0877  164.0242 C.ar    1  UNL1       -0.0045
     18 C         145.5158  140.5946  164.0221 C.ar    1  UNL1       -0.0003
     19 C         144.3683  139.7302  164.4534 C.ar    1  UNL1       -0.0003
     20 C         143.0773  140.3590  164.8868 C.ar    1  UNL1       -0.0032
     21 C         142.9338  141.8521  164.8889 C.ar    1  UNL1       -0.0101
@<TRIPOS>BOND
     1    15    16    1
     2    16    17   ar
     3    17    18   ar
     4    18    19   ar
     5    19    20   ar
     6    20    21   ar
     7    21    14    1
     8    14     1    1
     9     1     2    1
    10     2     3    1
    11     3     4    1
    12     4     5    1
    13     5     6    1
    14     6     7    1
    15     8     1    1
    16     8     9    1
    17     9    10    1
    18    10    11    1
    19    11    12    1
    20    21    16   ar
    21     7     2    1
    22    12     8    1
    23    11    13    1
@<TRIPOS>MOLECULE
*****
 21 23 0 0 0
SMALL
GASTEIGER

@<TRIPOS>ATOM
      1 N         140.8786  141.9980  167.3493 N.3     1  UNL1       -0.2700
      2 C         140.8173  142.8844  166.1407 C.3     1  UNL1        0.0628
      3 C         142.0005  142.9860  165.2244 C.3     1  UNL1        0.0481
      4 C         141.9393  143.8724  164.0158 C.3     1  UNL1        0.1435
      5 O         140.6949  144.6572  163.7237 O.3     1  UNL1       -0.3537
      6 C         139.5116  144.5556  164.6400 C.3     1  UNL1        0.1435
      7 C         139.5729  143.6692  165.8485 C.3     1  UNL1        0.0481
      8 C         141.7033  142.4026  168.5351 C.3     1  UNL1        0.0748
      9 C         143.1501  142.0740  168.7563 C.3     1  UNL1        0.0344
     10 C         143.5670  142.6751  170.0658 C.3     1  UNL1        0.0700
     11 N         142.3780  143.3753  170.6539 N.3     1  UNL1       -0.2963
     12 C         141.2262  143.2069  169.7078 C.3     1  UNL1        0.0847
     13 H         142.5848  144.3669  170.7744 H       1  UNL1        0.1233
     14 C         140.1151  140.7071  167.3720 C.3     1  UNL1        0.0988
     15 C         137.9691  139.0922  166.0352 C.3     1  UNL1        0.0307
     16 C         139.4133  138.7921  165.7625 C.ar    1  UNL1       -0.0245
     17 C         139.7845  137.6846  164.8214 C.ar    1  UNL1       -0.0045
     18 C         141.2286  137.3846  164.5487 C.ar    1  UNL1       -0.0003
     19 C         142.3016  138.1920  165.2171 C.ar    1  UNL1       -0.0003
     20 C         141.9304  139.2994  166.1582 C.ar    1  UNL1       -0.0032
     21 C         140.4863  139.5995  166.4309 C.ar    1  UNL1       -0.0101
@<TRIPOS>BOND
     1    15    16    1
     2    16    17   ar
     3    17    18   ar
     4    18    19   ar
     5    19    20   ar
     6    20    21   ar
     7    21    14    1
     8    14     1    1
     9     1     2    1
    10     2     3    1
    11     3     4    1
    12     4     5    1
    13     5     6    1
    14     6     7    1
    15     8     1    1
    16     8     9    1
    17     9    10    1
    18    10    11    1
    19    11    12    1
    20    21    16   ar
    21     7     2    1
    22    12     8    1
    23    11    13    1
@<TRIPOS>MOLECULE
*****
 21 23 0 0 0
SMALL
GASTEIGER

@<TRIPOS>ATOM
      1 N         141.7693  141.7244  166.9045 N.3     1  UNL1       -0.2700
      2 C         142.9244  141.5766  165.9589 C.3     1  UNL1        0.0628
      3 C         143.3312  140.2150  165.4790 C.3     1  UNL1        0.0481
      4 C         144.4863  140.0671  164.5336 C.3     1  UNL1        0.1435
      5 O         145.2345  141.2809  164.0680 O.3     1  UNL1       -0.3537
      6 C         144.8276  142.6426  164.5479 C.3     1  UNL1        0.1435
      7 C         143.6726  142.7904  165.4934 C.3     1  UNL1        0.0481
      8 C         141.9899  142.2926  168.2750 C.3     1  UNL1        0.0748
      9 C         143.2796  142.2725  169.0407 C.3     1  UNL1        0.0344
     10 C         143.0464  142.9481  170.3595 C.3     1  UNL1        0.0700
     11 N         141.6125  143.3859  170.4088 N.3     1  UNL1       -0.2963
     12 C         140.9596  142.9808  169.1206 C.3     1  UNL1        0.0847
     13 H         141.5635  144.3988  170.5182 H       1  UNL1        0.1233
     14 C         140.3936  141.3040  166.4794 C.3     1  UNL1        0.0988
     15 C         138.1887  140.1984  164.7717 C.3     1  UNL1        0.0307
     16 C         138.4456  141.6759  164.8010 C.ar    1  UNL1       -0.0245
     17 C         137.6001  142.6007  163.9764 C.ar    1  UNL1       -0.0045
     18 C         137.8570  144.0782  164.0056 C.ar    1  UNL1       -0.0003
     19 C         138.9594  144.6310  164.8594 C.ar    1  UNL1       -0.0003
     20 C         139.8049  143.7063  165.6840 C.ar    1  UNL1       -0.0032
     21 C         139.5480  142.2288  165.6548 C.ar    1  UNL1       -0.0101
@<TRIPOS>BOND
     1    15    16    1
     2    16    17   ar
     3    17    18   ar
     4    18    19   ar
     5    19    20   ar
     6    20    21   ar
     7    21    14    1
     8    14     1    1
     9     1     2    1
    10     2     3    1
    11     3     4    1
    12     4     5    1
    13     5     6    1
    14     6     7    1
    15     8     1    1
    16     8     9    1
    17     9    10    1
    18    10    11    1
    19    11    12    1
    20    21    16   ar
    21     7     2    1
    22    12     8    1
    23    11    13    1
@<TRIPOS>MOLECULE
*****
 21 23 0 0 0
SMALL
GASTEIGER

@<TRIPOS>ATOM
      1 N         141.0408  142.1634  166.2239 N.3     1  UNL1       -0.2700
      2 C         141.4284  142.4958  167.6344 C.3     1  UNL1        0.0628
      3 C         140.4362  143.1483  168.5508 C.3     1  UNL1        0.0481
      4 C         140.8237  143.4807  169.9612 C.3     1  UNL1        0.1435
      5 O         142.2034  143.1606  170.4552 O.3     1  UNL1       -0.3537
      6 C         143.1955  142.5081  169.5387 C.3     1  UNL1        0.1435
      7 C         142.8080  142.1757  168.1283 C.3     1  UNL1        0.0481
      8 C         140.4238  143.2136  165.3484 C.3     1  UNL1        0.0748
      9 C         138.9551  143.4593  165.1675 C.3     1  UNL1        0.0344
     10 C         138.7907  144.5999  164.2074 C.3     1  UNL1        0.0700
     11 N         140.1578  145.0592  163.7948 N.3     1  UNL1       -0.2963
     12 C         141.1670  144.2023  164.4999 C.3     1  UNL1        0.0847
     13 H         140.2888  146.0359  164.0577 H       1  UNL1        0.1233
     14 C         141.2702  140.7810  165.6890 C.3     1  UNL1        0.0988
     15 C         141.2868  138.3741  163.8983 C.3     1  UNL1        0.0307
     16 C         140.2102  138.5335  164.9305 C.ar    1  UNL1       -0.0245
     17 C         139.1419  137.4895  165.0674 C.ar    1  UNL1       -0.0045
     18 C         138.0653  137.6490  166.0997 C.ar    1  UNL1       -0.0003
     19 C         138.0570  138.8524  166.9950 C.ar    1  UNL1       -0.0003
     20 C         139.1253  139.8964  166.8581 C.ar    1  UNL1       -0.0032
     21 C         140.2019  139.7369  165.8259 C.ar    1  UNL1       -0.0101
@<TRIPOS>BOND
     1    15    16    1
     2    16    17   ar
     3    17    18   ar
     4    18    19   ar
     5    19    20   ar
     6    20    21   ar
     7    21    14    1
     8    14     1    1
     9     1     2    1
    10     2     3    1
    11     3     4    1
    12     4     5    1
    13     5     6    1
    14     6     7    1
    15     8     1    1
    16     8     9    1
    17     9    10    1
    18    10    11    1
    19    11    12    1
    20    21    16   ar
    21     7     2    1
    22    12     8    1
    23    11    13    1
@<TRIPOS>MOLECULE
*****
 21 23 0 0 0
SMALL
GASTEIGER

@<TRIPOS>ATOM
      1 N         140.6916  141.9784  166.7407 N.3     1  UNL1       -0.2700
      2 C         140.4803  141.7673  168.2107 C.3     1  UNL1        0.0628
      3 C         140.3972  140.3756  168.7642 C.3     1  UNL1        0.0481
      4 C         140.1858  140.1644  170.2341 C.3     1  UNL1        0.1435
      5 O         140.0576  141.3449  171.1505 O.3     1  UNL1       -0.3537
      6 C         140.1406  142.7366  170.5971 C.3     1  UNL1        0.1435
      7 C         140.3520  142.9478  169.1272 C.3     1  UNL1        0.0481
      8 C         139.5569  141.7694  165.7822 C.3     1  UNL1        0.0748
      9 C         138.9150  142.8255  164.9321 C.3     1  UNL1        0.0344
     10 C         137.8262  142.1765  164.1300 C.3     1  UNL1        0.0700
     11 N         137.7952  140.7193  164.4845 N.3     1  UNL1       -0.2963
     12 C         138.8648  140.4677  165.5056 C.3     1  UNL1        0.0847
     13 H         137.9720  140.1567  163.6522 H       1  UNL1        0.1233
     14 C         142.0377  142.3985  166.2293 C.3     1  UNL1        0.0988
     15 C         144.3585  143.2801  164.5451 C.3     1  UNL1        0.0307
     16 C         144.1291  141.8200  164.8005 C.ar    1  UNL1       -0.0245
     17 C         145.0600  140.8006  164.2138 C.ar    1  UNL1       -0.0045
     18 C         144.8305  139.3404  164.4692 C.ar    1  UNL1       -0.0003
     19 C         143.6702  138.8996  165.3113 C.ar    1  UNL1       -0.0003
     20 C         142.7392  139.9190  165.8979 C.ar    1  UNL1       -0.0032
     21 C         142.9687  141.3791  165.6426 C.ar    1  UNL1       -0.0101
@<TRIPOS>BOND
     1    15    16    1
     2    16    17   ar
     3    17    18   ar
     4    18    19   ar
     5    19    20   ar
     6    20    21   ar
     7    21    14    1
     8    14     1    1
     9     1     2    1
    10     2     3    1
    11     3     4    1
    12     4     5    1
    13     5     6    1
    14     6     7    1
    15     8     1    1
    16     8     9    1
    17     9    10    1
    18    10    11    1
    19    11    12    1
    20    21    16   ar
    21     7     2    1
    22    12     8    1
    23    11    13    1
@<TRIPOS>MOLECULE
*****
 21 23 0 0 0
SMALL
GASTEIGER

@<TRIPOS>ATOM
      1 N         140.8702  140.8966  167.1743 N.3     1  UNL1       -0.2700
      2 C         140.7021  141.3772  168.5853 C.3     1  UNL1        0.0628
      3 C         140.8031  140.4072  169.7250 C.3     1  UNL1        0.0481
      4 C         140.6350  140.8877  171.1359 C.3     1  UNL1        0.1435
      5 O         140.3659  142.3382  171.4072 O.3     1  UNL1       -0.3537
      6 C         140.2649  143.3082  170.2675 C.3     1  UNL1        0.1435
      7 C         140.4330  142.8276  168.8565 C.3     1  UNL1        0.0481
      8 C         139.7475  141.0489  166.1913 C.3     1  UNL1        0.0748
      9 C         139.4650  142.2629  165.3567 C.3     1  UNL1        0.0344
     10 C         138.2530  141.9783  164.5199 C.3     1  UNL1        0.0700
     11 N         137.7865  140.5885  164.8373 N.3     1  UNL1       -0.2963
     12 C         138.7102  140.0141  165.8703 C.3     1  UNL1        0.0847
     13 H         137.8101  140.0145  163.9945 H       1  UNL1        0.1233
     14 C         142.1610  140.2636  166.7463 C.3     1  UNL1        0.0988
     15 C         143.7117  138.8984  164.5711 C.3     1  UNL1        0.0307
     16 C         143.9168  140.3609  164.8337 C.ar    1  UNL1       -0.0245
     17 C         144.8972  141.1408  164.0088 C.ar    1  UNL1       -0.0045
     18 C         145.1023  142.6033  164.2715 C.ar    1  UNL1       -0.0003
     19 C         144.3270  143.2859  165.3591 C.ar    1  UNL1       -0.0003
     20 C         143.3466  142.5060  166.1840 C.ar    1  UNL1       -0.0032
     21 C         143.1415  141.0435  165.9213 C.ar    1  UNL1       -0.0101
@<TRIPOS>BOND
     1    15    16    1
     2    16    17   ar
     3    17    18   ar
     4    18    19   ar
     5    19    20   ar
     6    20    21   ar
     7    21    14    1
     8    14     1    1
     9     1     2    1
    10     2     3    1
    11     3     4    1
    12     4     5    1
    13     5     6    1
    14     6     7    1
    15     8     1    1
    16     8     9    1
    17     9    10    1
    18    10    11    1
    19    11    12    1
    20    21    16   ar
    21     7     2    1
    22    12     8    1
    23    11    13    1
@<TRIPOS>MOLECULE
*****
 21 23 0 0 0
SMALL
GASTEIGER

@<TRIPOS>ATOM
      1 N         140.8294  140.9316  167.3832 N.3     1  UNL1       -0.2700
      2 C         139.8700  140.7069  166.2522 C.3     1  UNL1        0.0628
      3 C         139.3046  141.8779  165.5044 C.3     1  UNL1        0.0481
      4 C         138.3453  141.6532  164.3735 C.3     1  UNL1        0.1435
      5 O         137.9514  140.2576  163.9902 O.3     1  UNL1       -0.3537
      6 C         138.5168  139.0866  164.7379 C.3     1  UNL1        0.1435
      7 C         139.4761  139.3112  165.8689 C.3     1  UNL1        0.0481
      8 C         140.3655  141.6142  168.6358 C.3     1  UNL1        0.0748
      9 C         140.6434  143.0375  169.0190 C.3     1  UNL1        0.0344
     10 C         139.9918  143.2962  170.3451 C.3     1  UNL1        0.0700
     11 N         139.3112  142.0328  170.7815 N.3     1  UNL1       -0.2963
     12 C         139.5421  140.9932  169.7251 C.3     1  UNL1        0.0847
     13 H         138.3108  142.1986  170.8911 H       1  UNL1        0.1233
     14 C         142.2526  140.4738  167.2617 C.3     1  UNL1        0.0988
     15 C         143.3772  138.7550  165.0750 C.3     1  UNL1        0.0307
     16 C         143.7101  140.2167  165.1263 C.ar    1  UNL1       -0.0245
     17 C         144.6053  140.8190  164.0843 C.ar    1  UNL1       -0.0045
     18 C         144.9382  142.2807  164.1355 C.ar    1  UNL1       -0.0003
     19 C         144.3759  143.1401  165.2288 C.ar    1  UNL1       -0.0003
     20 C         143.4807  142.5378  166.2708 C.ar    1  UNL1       -0.0032
     21 C         143.1478  141.0761  166.2196 C.ar    1  UNL1       -0.0101
@<TRIPOS>BOND
     1    15    16    1
     2    16    17   ar
     3    17    18   ar
     4    18    19   ar
     5    19    20   ar
     6    20    21   ar
     7    21    14    1
     8    14     1    1
     9     1     2    1
    10     2     3    1
    11     3     4    1
    12     4     5    1
    13     5     6    1
    14     6     7    1
    15     8     1    1
    16     8     9    1
    17     9    10    1
    18    10    11    1
    19    11    12    1
    20    21    16   ar
    21     7     2    1
    22    12     8    1
    23    11    13    1
@<TRIPOS>MOLECULE
*****
 21 23 0 0 0
SMALL
GASTEIGER

@<TRIPOS>ATOM
      1 N         141.2233  141.5852  166.6163 N.3     1  UNL1       -0.2700
      2 C         140.5537  141.6368  167.9576 C.3     1  UNL1        0.0628
      3 C         140.6692  142.8680  168.8066 C.3     1  UNL1        0.0481
      4 C         139.9996  142.9197  170.1479 C.3     1  UNL1        0.1435
      5 O         139.2145  141.7402  170.6401 O.3     1  UNL1       -0.3537
      6 C         139.0990  140.5090  169.7911 C.3     1  UNL1        0.1435
      7 C         139.7686  140.4573  168.4498 C.3     1  UNL1        0.0481
      8 C         141.8020  140.2948  166.1162 C.3     1  UNL1        0.0748
      9 C         142.8985  139.5079  166.7708 C.3     1  UNL1        0.0344
     10 C         143.1600  138.2915  165.9328 C.3     1  UNL1        0.0700
     11 N         142.2251  138.3267  164.7603 N.3     1  UNL1       -0.2963
     12 C         141.3859  139.5648  164.8737 C.3     1  UNL1        0.0847
     13 H         141.6267  137.5008  164.7699 H       1  UNL1        0.1233
     14 C         141.3143  142.8238  165.7753 C.3     1  UNL1        0.0988
     15 C         141.5815  145.1452  163.8938 C.3     1  UNL1        0.0307
     16 C         140.2776  144.4113  163.9990 C.ar    1  UNL1       -0.0245
     17 C         139.1072  144.8380  163.1634 C.ar    1  UNL1       -0.0045
     18 C         137.8033  144.1041  163.2685 C.ar    1  UNL1       -0.0003
     19 C         137.6697  142.9434  164.2092 C.ar    1  UNL1       -0.0003
     20 C         138.8400  142.5167  165.0448 C.ar    1  UNL1       -0.0032
     21 C         140.1439  143.2506  164.9396 C.ar    1  UNL1       -0.0101
@<TRIPOS>BOND
     1    15    16    1
     2    16    17   ar
     3    17    18   ar
     4    18    19   ar
     5    19    20   ar
     6    20    21   ar
     7    21    14    1
     8    14     1    1
     9     1     2    1
    10     2     3    1
    11     3     4    1
    12     4     5    1
    13     5     6    1
    14     6     7    1
    15     8     1    1
    16     8     9    1
    17     9    10    1
    18    10    11    1
    19    11    12    1
    20    21    16   ar
    21     7     2    1
    22    12     8    1
    23    11    13    1
