@<TRIPOS>MOLECULE
*****
 42 47 0 0 0
SMALL
GASTEIGER

@<TRIPOS>ATOM
      1 C         141.0382  140.2884  164.3325 C.ar    1  UNL1        0.0870
      2 N         141.1489  140.5114  162.8533 N.ar    1  UNL1       -0.2279
      3 C         140.1623  141.3977  162.1525 C.ar    1  UNL1        0.1596
      4 N         140.2730  141.6207  160.6733 N.pl3   1  UNL1       -0.3402
      5 C         139.0648  142.0610  162.9309 C.ar    1  UNL1        0.1696
      6 C         138.9541  141.8379  164.4101 C.ar    1  UNL1        0.0428
      7 C         139.9408  140.9517  165.1109 C.ar    1  UNL1        0.0380
      8 H         140.9932  141.1854  160.1624 H       1  UNL1        0.1438
      9 H         139.6254  142.2024  160.2134 H       1  UNL1        0.1438
     10 C         139.8301  140.7286  166.5900 C.ar    1  UNL1        0.0777
     11 C         138.9340  139.6491  167.1208 C.ar    1  UNL1        0.1176
     12 N         138.8233  139.4261  168.5999 N.ar    1  UNL1       -0.2209
     13 C         139.6085  140.2825  169.5485 C.ar    1  UNL1        0.2006
     14 N         139.7021  140.2968  171.0454 N.ar    1  UNL1       -0.1272
     15 N         140.6559  141.3852  171.4400 N.ar    1  UNL1       -0.1493
     16 C         141.1519  142.0436  170.1868 C.ar    1  UNL1        0.0995
     17 C         142.1244  143.1833  170.1152 C.3     1  UNL1        0.0557
     18 C         140.5046  141.3621  169.0177 C.ar    1  UNL1        0.1101
     19 N         140.6153  141.5851  167.5385 N.ar    1  UNL1       -0.3484
     20 H         141.2034  142.2937  167.1903 H       1  UNL1        0.1661
     21 C         140.9211  137.0307  164.4829 C.3     1  UNL1        0.0725
     22 C         141.9710  137.9047  165.1024 C.ar    1  UNL1        0.1248
     23 O         143.1513  137.4348  165.8998 O.2     1  UNL1       -0.4546
     24 C         143.9346  138.6418  166.3235 C.ar    1  UNL1        0.1792
     25 C         143.2384  139.8577  165.7880 C.ar    1  UNL1        0.0448
     26 C         142.0248  139.4022  165.0333 C.ar    1  UNL1        0.0512
     27 O         138.0782  142.9472  162.2301 O.3     1  UNL1       -0.4712
     28 C         137.8528  144.3487  162.7147 C.3     1  UNL1        0.2211
     29 C         138.9851  145.1240  163.3203 C.3     1  UNL1        0.0995
     30 N         139.1124  145.2244  164.8116 N.3     1  UNL1       -0.3190
     31 H         139.9324  145.7839  165.0459 H       1  UNL1        0.1189
     32 H         139.2138  144.2900  165.2078 H       1  UNL1        0.1189
     33 C         139.9903  145.7990  162.4347 C.3     1  UNL1        0.0472
     34 C         141.1361  145.0148  161.8671 C.2     1  UNL1       -0.0005
     35 C         141.4305  144.8131  160.4102 C.2     1  UNL1        0.0942
     36 N         142.6650  143.9682  160.2995 N.2     1  UNL1       -0.2482
     37 C         143.1335  143.6478  161.6880 C.2     1  UNL1        0.0631
     38 C         144.2984  142.8506  162.1953 C.3     1  UNL1        0.0717
     39 C         144.5184  142.7002  163.6714 C.2     1  UNL1       -0.0198
     40 C         143.5734  143.3471  164.6402 C.2     1  UNL1       -0.0042
     41 C         142.4085  144.1442  164.1329 C.2     1  UNL1        0.0006
     42 C         142.1885  144.2946  162.6568 C.2     1  UNL1        0.0114
@<TRIPOS>BOND
     1    21    22    1
     2    22    23   ar
     3    23    24   ar
     4    24    25   ar
     5    25    26   ar
     6    26     1    1
     7     1     2   ar
     8     2     3   ar
     9     3     4    1
    10     3     5   ar
    11     5    27    1
    12    27    28    1
    13    28    29    1
    14    29    30    1
    15    29    33    1
    16    33    34    1
    17    34    35    2
    18    35    36    1
    19    36    37    2
    20    37    38    1
    21    38    39    1
    22    39    40    2
    23    40    41    1
    24    41    42    2
    25     5     6   ar
    26     6     7   ar
    27     7    10    1
    28    10    11   ar
    29    11    12   ar
    30    12    13   ar
    31    13    14   ar
    32    14    15   ar
    33    15    16   ar
    34    16    17    1
    35    16    18   ar
    36    18    19   ar
    37    26    22   ar
    38     7     1   ar
    39    19    10   ar
    40    42    34    1
    41    18    13    1
    42    42    37    1
    43     4     8    1
    44     4     9    1
    45    30    31    1
    46    30    32    1
    47    19    20    1
@<TRIPOS>MOLECULE
*****
 42 47 0 0 0
SMALL
GASTEIGER

@<TRIPOS>ATOM
      1 C         141.0753  140.2489  164.5655 C.ar    1  UNL1        0.0870
      2 N         141.1095  140.3758  163.0713 N.ar    1  UNL1       -0.2279
      3 C         142.1895  141.1809  162.4115 C.ar    1  UNL1        0.1596
      4 N         142.2238  141.3078  160.9172 N.pl3   1  UNL1       -0.3402
      5 C         143.2353  141.8593  163.2460 C.ar    1  UNL1        0.1696
      6 C         143.2011  141.7325  164.7402 C.ar    1  UNL1        0.0428
      7 C         142.1210  140.9273  165.3999 C.ar    1  UNL1        0.0380
      8 H         141.5374  140.8626  160.3696 H       1  UNL1        0.1438
      9 H         142.9326  141.8362  160.4842 H       1  UNL1        0.1438
     10 C         142.0868  140.8004  166.8942 C.ar    1  UNL1        0.0777
     11 C         142.6319  139.5691  167.5550 C.ar    1  UNL1        0.1176
     12 N         142.5976  139.4423  169.0493 N.ar    1  UNL1       -0.2209
     13 C         142.0183  140.5467  169.8827 C.ar    1  UNL1        0.2006
     14 N         141.8498  140.7031  171.3649 N.ar    1  UNL1       -0.1272
     15 N         141.2006  142.0310  171.6202 N.ar    1  UNL1       -0.1493
     16 C         140.9679  142.6953  170.2956 C.ar    1  UNL1        0.0995
     17 C         140.3400  144.0408  170.0824 C.3     1  UNL1        0.0557
     18 C         141.4732  141.7780  169.2218 C.ar    1  UNL1        0.1101
     19 N         141.5075  141.9049  167.7276 N.ar    1  UNL1       -0.3484
     20 H         141.1497  142.7130  167.2938 H       1  UNL1        0.1661
     21 C         140.7695  137.0016  164.4629 C.3     1  UNL1        0.0725
     22 C         139.8547  137.9511  165.1781 C.ar    1  UNL1        0.1248
     23 O         138.6388  137.5747  165.9718 O.2     1  UNL1       -0.4546
     24 C         138.0280  138.8348  166.5095 C.ar    1  UNL1        0.1792
     25 C         138.8663  139.9899  166.0482 C.ar    1  UNL1        0.0448
     26 C         139.9953  139.4438  165.2253 C.ar    1  UNL1        0.0512
     27 O         144.3153  142.6645  162.5861 O.3     1  UNL1       -0.4712
     28 C         144.1906  144.1566  162.4981 C.3     1  UNL1        0.2211
     29 C         143.5202  144.9196  163.6020 C.3     1  UNL1        0.0995
     30 N         144.2219  145.1131  164.9135 N.3     1  UNL1       -0.3190
     31 H         143.6250  145.6501  165.5425 H       1  UNL1        0.1189
     32 H         145.0954  145.6172  164.7607 H       1  UNL1        0.1189
     33 C         142.1481  145.4891  163.3943 C.3     1  UNL1        0.0472
     34 C         141.1607  144.7685  162.5249 C.2     1  UNL1       -0.0005
     35 C         141.1965  144.6908  161.0273 C.2     1  UNL1        0.0942
     36 N         140.0221  143.8733  160.5774 N.2     1  UNL1       -0.2482
     37 C         139.2604  143.4457  161.7969 C.2     1  UNL1        0.0631
     38 C         138.0171  142.6241  161.9668 C.3     1  UNL1        0.0717
     39 C         137.4774  142.3557  163.3404 C.2     1  UNL1       -0.0198
     40 C         138.1812  142.9089  164.5440 C.2     1  UNL1       -0.0042
     41 C         139.4245  143.7306  164.3741 C.2     1  UNL1        0.0006
     42 C         139.9642  143.9990  163.0005 C.2     1  UNL1        0.0114
@<TRIPOS>BOND
     1    21    22    1
     2    22    23   ar
     3    23    24   ar
     4    24    25   ar
     5    25    26   ar
     6    26     1    1
     7     1     2   ar
     8     2     3   ar
     9     3     4    1
    10     3     5   ar
    11     5    27    1
    12    27    28    1
    13    28    29    1
    14    29    30    1
    15    29    33    1
    16    33    34    1
    17    34    35    2
    18    35    36    1
    19    36    37    2
    20    37    38    1
    21    38    39    1
    22    39    40    2
    23    40    41    1
    24    41    42    2
    25     5     6   ar
    26     6     7   ar
    27     7    10    1
    28    10    11   ar
    29    11    12   ar
    30    12    13   ar
    31    13    14   ar
    32    14    15   ar
    33    15    16   ar
    34    16    17    1
    35    16    18   ar
    36    18    19   ar
    37    26    22   ar
    38     7     1   ar
    39    19    10   ar
    40    42    34    1
    41    18    13    1
    42    42    37    1
    43     4     8    1
    44     4     9    1
    45    30    31    1
    46    30    32    1
    47    19    20    1
@<TRIPOS>MOLECULE
*****
 42 47 0 0 0
SMALL
GASTEIGER

@<TRIPOS>ATOM
      1 C         138.5683  139.5122  164.3753 C.ar    1  UNL1        0.0870
      2 N         137.8982  138.3860  165.1050 N.ar    1  UNL1       -0.2279
      3 C         137.9109  138.3511  166.6046 C.ar    1  UNL1        0.1596
      4 N         137.2407  137.2249  167.3343 N.pl3   1  UNL1       -0.3402
      5 C         138.5938  139.4425  167.3744 C.ar    1  UNL1        0.1696
      6 C         139.2640  140.5687  166.6447 C.ar    1  UNL1        0.0428
      7 C         139.2512  140.6035  165.1451 C.ar    1  UNL1        0.0380
      8 H         136.7926  136.5086  166.8290 H       1  UNL1        0.1438
      9 H         137.2491  137.2020  168.3185 H       1  UNL1        0.1438
     10 C         139.9214  141.7297  164.4154 C.ar    1  UNL1        0.0777
     11 C         139.5413  143.1494  164.7157 C.ar    1  UNL1        0.1176
     12 N         140.2114  144.2756  163.9859 N.ar    1  UNL1       -0.2209
     13 C         141.2617  143.9823  162.9559 C.ar    1  UNL1        0.2006
     14 N         142.0888  144.8782  162.0825 N.ar    1  UNL1       -0.1272
     15 N         142.9802  144.0124  161.2423 N.ar    1  UNL1       -0.1493
     16 C         142.7038  142.5812  161.5966 C.ar    1  UNL1        0.0995
     17 C         143.3723  141.3797  160.9971 C.3     1  UNL1        0.0557
     18 C         141.6417  142.5626  162.6557 C.ar    1  UNL1        0.1101
     19 N         140.9716  141.4364  163.3854 N.ar    1  UNL1       -0.3484
     20 H         141.2211  140.5047  163.1883 H       1  UNL1        0.1661
     21 C         140.4780  137.7518  162.3995 C.3     1  UNL1        0.0725
     22 C         139.4334  138.7379  161.9676 C.ar    1  UNL1        0.1248
     23 O         139.0832  139.0879  160.5517 O.2     1  UNL1       -0.4546
     24 C         137.9890  140.1134  160.5848 C.ar    1  UNL1        0.1792
     25 C         137.6630  140.3972  162.0211 C.ar    1  UNL1        0.0448
     26 C         138.5556  139.5471  162.8758 C.ar    1  UNL1        0.0512
     27 O         138.6065  139.4076  168.8740 O.3     1  UNL1       -0.4712
     28 C         139.2800  140.5047  169.6439 C.3     1  UNL1        0.2211
     29 C         140.5680  140.2343  170.3636 C.3     1  UNL1        0.0995
     30 N         140.6630  140.4637  171.8429 N.3     1  UNL1       -0.3190
     31 H         141.6029  140.2306  172.1634 H       1  UNL1        0.1189
     32 H         139.9838  139.8731  172.3229 H       1  UNL1        0.1189
     33 C         141.7610  139.7344  169.6040 C.3     1  UNL1        0.0472
     34 C         142.3734  140.5809  168.5277 C.2     1  UNL1       -0.0005
     35 C         142.6491  142.0529  168.6136 C.2     1  UNL1        0.0942
     36 N         143.2638  142.4857  167.3156 N.2     1  UNL1       -0.2482
     37 C         143.3679  141.2813  166.4275 C.2     1  UNL1        0.0631
     38 C         143.8928  141.1046  165.0335 C.3     1  UNL1        0.0717
     39 C         143.8673  139.7505  164.3887 C.2     1  UNL1       -0.0198
     40 C         143.3170  138.5732  165.1379 C.2     1  UNL1       -0.0042
     41 C         142.7922  138.7500  166.5319 C.2     1  UNL1        0.0006
     42 C         142.8177  140.1041  167.1767 C.2     1  UNL1        0.0114
@<TRIPOS>BOND
     1    21    22    1
     2    22    23   ar
     3    23    24   ar
     4    24    25   ar
     5    25    26   ar
     6    26     1    1
     7     1     2   ar
     8     2     3   ar
     9     3     4    1
    10     3     5   ar
    11     5    27    1
    12    27    28    1
    13    28    29    1
    14    29    30    1
    15    29    33    1
    16    33    34    1
    17    34    35    2
    18    35    36    1
    19    36    37    2
    20    37    38    1
    21    38    39    1
    22    39    40    2
    23    40    41    1
    24    41    42    2
    25     5     6   ar
    26     6     7   ar
    27     7    10    1
    28    10    11   ar
    29    11    12   ar
    30    12    13   ar
    31    13    14   ar
    32    14    15   ar
    33    15    16   ar
    34    16    17    1
    35    16    18   ar
    36    18    19   ar
    37    26    22   ar
    38     7     1   ar
    39    19    10   ar
    40    42    34    1
    41    18    13    1
    42    42    37    1
    43     4     8    1
    44     4     9    1
    45    30    31    1
    46    30    32    1
    47    19    20    1
@<TRIPOS>MOLECULE
*****
 42 47 0 0 0
SMALL
GASTEIGER

@<TRIPOS>ATOM
      1 C         138.9450  140.8841  164.8118 C.ar    1  UNL1        0.0870
      2 N         138.1371  141.5157  163.7172 N.ar    1  UNL1       -0.2279
      3 C         138.5032  142.8772  163.2049 C.ar    1  UNL1        0.1596
      4 N         137.6953  143.5089  162.1103 N.pl3   1  UNL1       -0.3402
      5 C         139.6773  143.6070  163.7874 C.ar    1  UNL1        0.1696
      6 C         140.4852  142.9753  164.8820 C.ar    1  UNL1        0.0428
      7 C         140.1190  141.6138  165.3942 C.ar    1  UNL1        0.0380
      8 H         136.9248  143.0299  161.7280 H       1  UNL1        0.1438
      9 H         137.9356  144.4025  161.7741 H       1  UNL1        0.1438
     10 C         140.9269  140.9821  166.4889 C.ar    1  UNL1        0.0777
     11 C         141.9216  139.9079  166.1625 C.ar    1  UNL1        0.1176
     12 N         142.7295  139.2762  167.2572 N.ar    1  UNL1       -0.2209
     13 C         142.5427  139.7187  168.6782 C.ar    1  UNL1        0.2006
     14 N         143.1911  139.2829  169.9586 N.ar    1  UNL1       -0.1272
     15 N         142.5972  140.0878  171.0764 N.ar    1  UNL1       -0.1493
     16 C         141.5817  141.0210  170.4867 C.ar    1  UNL1        0.0995
     17 C         140.7465  142.0090  171.2459 C.3     1  UNL1        0.0557
     18 C         141.5480  140.7929  169.0045 C.ar    1  UNL1        0.1101
     19 N         140.7401  141.4246  167.9098 N.ar    1  UNL1       -0.3484
     20 H         140.0873  142.1297  168.1241 H       1  UNL1        0.1661
     21 C         139.6020  138.0430  163.3469 C.3     1  UNL1        0.0725
     22 C         138.8810  138.2167  164.6507 C.ar    1  UNL1        0.1248
     23 O         138.3353  137.1150  165.5100 O.2     1  UNL1       -0.4546
     24 C         137.6960  137.7400  166.7145 C.ar    1  UNL1        0.1792
     25 C         137.8466  139.2280  166.5996 C.ar    1  UNL1        0.0448
     26 C         138.5790  139.5226  165.3241 C.ar    1  UNL1        0.0512
     27 O         140.0433  144.9685  163.2751 O.3     1  UNL1       -0.4712
     28 C         141.1828  145.1261  162.3125 C.3     1  UNL1        0.2211
     29 C         141.0960  144.5222  160.9422 C.3     1  UNL1        0.0995
     30 N         139.9095  144.8085  160.0702 N.3     1  UNL1       -0.3190
     31 H         140.0155  144.3202  159.1809 H       1  UNL1        0.1189
     32 H         139.8460  145.8124  159.9015 H       1  UNL1        0.1189
     33 C         142.1956  143.6318  160.4439 C.3     1  UNL1        0.0472
     34 C         142.4027  142.2796  161.0593 C.2     1  UNL1       -0.0005
     35 C         141.5767  141.0554  160.7966 C.2     1  UNL1        0.0942
     36 N         142.1358  139.9335  161.6204 N.2     1  UNL1       -0.2482
     37 C         143.3073  140.4643  162.3923 C.2     1  UNL1        0.0631
     38 C         144.2451  139.8146  163.3661 C.3     1  UNL1        0.0717
     39 C         145.3479  140.6149  163.9932 C.2     1  UNL1       -0.0198
     40 C         145.5129  142.0649  163.6464 C.2     1  UNL1       -0.0042
     41 C         144.5751  142.7146  162.6726 C.2     1  UNL1        0.0006
     42 C         143.4723  141.9143  162.0456 C.2     1  UNL1        0.0114
@<TRIPOS>BOND
     1    21    22    1
     2    22    23   ar
     3    23    24   ar
     4    24    25   ar
     5    25    26   ar
     6    26     1    1
     7     1     2   ar
     8     2     3   ar
     9     3     4    1
    10     3     5   ar
    11     5    27    1
    12    27    28    1
    13    28    29    1
    14    29    30    1
    15    29    33    1
    16    33    34    1
    17    34    35    2
    18    35    36    1
    19    36    37    2
    20    37    38    1
    21    38    39    1
    22    39    40    2
    23    40    41    1
    24    41    42    2
    25     5     6   ar
    26     6     7   ar
    27     7    10    1
    28    10    11   ar
    29    11    12   ar
    30    12    13   ar
    31    13    14   ar
    32    14    15   ar
    33    15    16   ar
    34    16    17    1
    35    16    18   ar
    36    18    19   ar
    37    26    22   ar
    38     7     1   ar
    39    19    10   ar
    40    42    34    1
    41    18    13    1
    42    42    37    1
    43     4     8    1
    44     4     9    1
    45    30    31    1
    46    30    32    1
    47    19    20    1
@<TRIPOS>MOLECULE
*****
 42 47 0 0 0
SMALL
GASTEIGER

@<TRIPOS>ATOM
      1 C         140.8802  142.5802  163.9667 C.ar    1  UNL1        0.0870
      2 N         141.4248  142.8605  162.5975 N.ar    1  UNL1       -0.2279
      3 C         142.6205  142.1056  162.0970 C.ar    1  UNL1        0.1596
      4 N         143.1651  142.3858  160.7277 N.pl3   1  UNL1       -0.3402
      5 C         143.2715  141.0704  162.9658 C.ar    1  UNL1        0.1696
      6 C         142.7269  140.7902  164.3350 C.ar    1  UNL1        0.0428
      7 C         141.5312  141.5451  164.8355 C.ar    1  UNL1        0.0380
      8 H         142.7378  143.0652  160.1576 H       1  UNL1        0.1438
      9 H         143.9499  141.8903  160.3992 H       1  UNL1        0.1438
     10 C         140.9865  141.2649  166.2047 C.ar    1  UNL1        0.0777
     11 C         139.8277  140.3276  166.3736 C.ar    1  UNL1        0.1176
     12 N         139.2830  140.0474  167.7428 N.ar    1  UNL1       -0.2209
     13 C         139.8972  140.7045  168.9432 C.ar    1  UNL1        0.2006
     14 N         139.5773  140.6218  170.4063 N.ar    1  UNL1       -0.1272
     15 N         140.5384  141.5079  171.1419 N.ar    1  UNL1       -0.1493
     16 C         141.4524  142.1383  170.1332 C.ar    1  UNL1        0.0995
     17 C         142.5669  143.0970  170.4311 C.3     1  UNL1        0.0557
     18 C         141.0561  141.6418  168.7744 C.ar    1  UNL1        0.1101
     19 N         141.6007  141.9220  167.4051 N.ar    1  UNL1       -0.3484
     20 H         142.3613  142.5372  167.2943 H       1  UNL1        0.1661
     21 C         137.7572  141.7704  163.4761 C.3     1  UNL1        0.0725
     22 C         138.2490  142.9629  164.2417 C.ar    1  UNL1        0.1248
     23 O         137.3917  143.9925  164.9162 O.2     1  UNL1       -0.4546
     24 C         138.2973  145.0010  165.5586 C.ar    1  UNL1        0.1792
     25 C         139.7144  144.5948  165.2811 C.ar    1  UNL1        0.0448
     26 C         139.6845  143.3351  164.4673 C.ar    1  UNL1        0.0512
     27 O         144.4672  140.3155  162.4653 O.3     1  UNL1       -0.4712
     28 C         144.2890  138.9796  161.8069 C.3     1  UNL1        0.2211
     29 C         143.6724  138.8924  160.4422 C.3     1  UNL1        0.0995
     30 N         144.1432  139.8026  159.3469 N.3     1  UNL1       -0.3190
     31 H         143.6192  139.6074  158.4939 H       1  UNL1        0.1189
     32 H         145.1371  139.6464  159.1787 H       1  UNL1        0.1189
     33 C         142.5848  137.8949  160.1729 C.3     1  UNL1        0.0472
     34 C         141.2054  138.1244  160.7157 C.2     1  UNL1       -0.0005
     35 C         140.0315  138.6523  159.9455 C.2     1  UNL1        0.0942
     36 N         138.8583  138.7204  160.8778 N.2     1  UNL1       -0.2482
     37 C         139.3072  138.2347  162.2241 C.2     1  UNL1        0.0631
     38 C         138.5826  138.0802  163.5283 C.3     1  UNL1        0.0717
     39 C         139.3085  137.5574  164.7323 C.2     1  UNL1       -0.0198
     40 C         140.7591  137.1890  164.6321 C.2     1  UNL1       -0.0042
     41 C         141.4838  137.3435  163.3279 C.2     1  UNL1        0.0006
     42 C         140.7579  137.8663  162.1239 C.2     1  UNL1        0.0114
@<TRIPOS>BOND
     1    21    22    1
     2    22    23   ar
     3    23    24   ar
     4    24    25   ar
     5    25    26   ar
     6    26     1    1
     7     1     2   ar
     8     2     3   ar
     9     3     4    1
    10     3     5   ar
    11     5    27    1
    12    27    28    1
    13    28    29    1
    14    29    30    1
    15    29    33    1
    16    33    34    1
    17    34    35    2
    18    35    36    1
    19    36    37    2
    20    37    38    1
    21    38    39    1
    22    39    40    2
    23    40    41    1
    24    41    42    2
    25     5     6   ar
    26     6     7   ar
    27     7    10    1
    28    10    11   ar
    29    11    12   ar
    30    12    13   ar
    31    13    14   ar
    32    14    15   ar
    33    15    16   ar
    34    16    17    1
    35    16    18   ar
    36    18    19   ar
    37    26    22   ar
    38     7     1   ar
    39    19    10   ar
    40    42    34    1
    41    18    13    1
    42    42    37    1
    43     4     8    1
    44     4     9    1
    45    30    31    1
    46    30    32    1
    47    19    20    1
@<TRIPOS>MOLECULE
*****
 42 47 0 0 0
SMALL
GASTEIGER

@<TRIPOS>ATOM
      1 C         139.3553  140.5306  164.3882 C.ar    1  UNL1        0.0870
      2 N         138.6899  140.9927  163.1258 N.ar    1  UNL1       -0.2279
      3 C         139.2254  142.1841  162.3884 C.ar    1  UNL1        0.1596
      4 N         138.5600  142.6462  161.1261 N.pl3   1  UNL1       -0.3402
      5 C         140.4264  142.9136  162.9136 C.ar    1  UNL1        0.1696
      6 C         141.0919  142.4515  164.1760 C.ar    1  UNL1        0.0428
      7 C         140.5563  141.2600  164.9132 C.ar    1  UNL1        0.0380
      8 H         137.7717  142.1675  160.7814 H       1  UNL1        0.1438
      9 H         138.9114  143.4282  160.6421 H       1  UNL1        0.1438
     10 C         141.2217  140.7979  166.1756 C.ar    1  UNL1        0.0777
     11 C         142.2706  139.7269  166.1219 C.ar    1  UNL1        0.1176
     12 N         142.9360  139.2648  167.3843 N.ar    1  UNL1       -0.2209
     13 C         142.5527  139.8736  168.7004 C.ar    1  UNL1        0.2006
     14 N         143.0316  139.6233  170.0996 N.ar    1  UNL1       -0.1272
     15 N         142.2788  140.5395  171.0183 N.ar    1  UNL1       -0.1493
     16 C         141.3346  141.3562  170.1866 C.ar    1  UNL1        0.0995
     17 C         140.3874  142.4009  170.6978 C.3     1  UNL1        0.0557
     18 C         141.5038  140.9446  168.7542 C.ar    1  UNL1        0.1101
     19 N         140.8384  141.4067  167.4918 N.ar    1  UNL1       -0.3484
     20 H         140.1500  142.1096  167.5271 H       1  UNL1        0.1661
     21 C         139.8019  137.4049  163.5636 C.3     1  UNL1        0.0725
     22 C         139.0251  137.9024  164.7465 C.ar    1  UNL1        0.1248
     23 O         138.3172  137.0505  165.7580 O.2     1  UNL1       -0.4546
     24 C         137.6745  137.9608  166.7621 C.ar    1  UNL1        0.1792
     25 C         137.9851  139.3752  166.3712 C.ar    1  UNL1        0.0448
     26 C         138.8198  139.3391  165.1255 C.ar    1  UNL1        0.0512
     27 O         140.9619  144.1050  162.1762 O.3     1  UNL1       -0.4712
     28 C         142.2265  143.9870  161.3783 C.3     1  UNL1        0.2211
     29 C         143.5558  144.1754  162.0473 C.3     1  UNL1        0.0995
     30 N         143.7669  145.3269  162.9851 N.3     1  UNL1       -0.3190
     31 H         144.7206  145.3012  163.3458 H       1  UNL1        0.1189
     32 H         143.1080  145.2588  163.7608 H       1  UNL1        0.1189
     33 C         144.6740  143.2123  161.7784 C.3     1  UNL1        0.0472
     34 C         144.6418  141.8387  162.3803 C.2     1  UNL1       -0.0005
     35 C         145.3890  141.3940  163.6025 C.2     1  UNL1        0.0942
     36 N         145.0657  139.9491  163.8431 N.2     1  UNL1       -0.2482
     37 C         144.1187  139.5010  162.7697 C.2     1  UNL1        0.0631
     38 C         143.4611  138.1803  162.4987 C.3     1  UNL1        0.0717
     39 C         142.5415  138.0276  161.3236 C.2     1  UNL1       -0.0198
     40 C         142.2795  139.1955  160.4194 C.2     1  UNL1       -0.0042
     41 C         142.9371  140.5161  160.6904 C.2     1  UNL1        0.0006
     42 C         143.8567  140.6688  161.8656 C.2     1  UNL1        0.0114
@<TRIPOS>BOND
     1    21    22    1
     2    22    23   ar
     3    23    24   ar
     4    24    25   ar
     5    25    26   ar
     6    26     1    1
     7     1     2   ar
     8     2     3   ar
     9     3     4    1
    10     3     5   ar
    11     5    27    1
    12    27    28    1
    13    28    29    1
    14    29    30    1
    15    29    33    1
    16    33    34    1
    17    34    35    2
    18    35    36    1
    19    36    37    2
    20    37    38    1
    21    38    39    1
    22    39    40    2
    23    40    41    1
    24    41    42    2
    25     5     6   ar
    26     6     7   ar
    27     7    10    1
    28    10    11   ar
    29    11    12   ar
    30    12    13   ar
    31    13    14   ar
    32    14    15   ar
    33    15    16   ar
    34    16    17    1
    35    16    18   ar
    36    18    19   ar
    37    26    22   ar
    38     7     1   ar
    39    19    10   ar
    40    42    34    1
    41    18    13    1
    42    42    37    1
    43     4     8    1
    44     4     9    1
    45    30    31    1
    46    30    32    1
    47    19    20    1
@<TRIPOS>MOLECULE
*****
 42 47 0 0 0
SMALL
GASTEIGER

@<TRIPOS>ATOM
      1 C         138.7258  139.6289  163.1286 C.ar    1  UNL1        0.0870
      2 N         138.5206  138.3634  163.9071 N.ar    1  UNL1       -0.2279
      3 C         138.5826  138.3863  165.4057 C.ar    1  UNL1        0.1596
      4 N         138.3774  137.1207  166.1843 N.pl3   1  UNL1       -0.3402
      5 C         138.8497  139.6748  166.1257 C.ar    1  UNL1        0.1696
      6 C         139.0549  140.9404  165.3471 C.ar    1  UNL1        0.0428
      7 C         138.9930  140.9174  163.8486 C.ar    1  UNL1        0.0380
      8 H         138.2020  136.2750  165.7117 H       1  UNL1        0.1438
      9 H         138.4180  137.1357  167.1678 H       1  UNL1        0.1438
     10 C         139.1982  142.1830  163.0700 C.ar    1  UNL1        0.0777
     11 C         138.1728  143.2761  163.1317 C.ar    1  UNL1        0.1176
     12 N         138.3780  144.5417  162.3531 N.ar    1  UNL1       -0.2209
     13 C         139.6085  144.7143  161.5128 C.ar    1  UNL1        0.2006
     14 N         140.0800  145.8416  160.6430 N.ar    1  UNL1       -0.1272
     15 N         141.3967  145.4454  160.0436 N.ar    1  UNL1       -0.1493
     16 C         141.7390  144.0729  160.5431 C.ar    1  UNL1        0.0995
     17 C         142.9702  143.2899  160.1956 C.3     1  UNL1        0.0557
     18 C         140.6338  143.6211  161.4511 C.ar    1  UNL1        0.1101
     19 N         140.4286  142.3555  162.2297 N.ar    1  UNL1       -0.3484
     20 H         141.1016  141.6381  162.1891 H       1  UNL1        0.1661
     21 C         140.9718  138.3517  161.1353 C.3     1  UNL1        0.0725
     22 C         139.6962  139.0189  160.7138 C.ar    1  UNL1        0.1248
     23 O         139.2291  139.2162  159.3021 O.2     1  UNL1       -0.4546
     24 C         137.9079  139.9253  159.3459 C.ar    1  UNL1        0.1792
     25 C         137.5586  140.1662  160.7846 C.ar    1  UNL1        0.0448
     26 C         138.6638  139.6060  161.6300 C.ar    1  UNL1        0.0512
     27 O         138.9117  139.6978  167.6243 O.3     1  UNL1       -0.4712
     28 C         139.9103  140.5743  168.3202 C.3     1  UNL1        0.2211
     29 C         141.0683  139.9596  169.0491 C.3     1  UNL1        0.0995
     30 N         140.8699  139.3785  170.4176 N.3     1  UNL1       -0.3190
     31 H         141.7556  139.0068  170.7608 H       1  UNL1        0.1189
     32 H         140.1811  138.6276  170.3716 H       1  UNL1        0.1189
     33 C         142.4248  139.9261  168.4094 C.3     1  UNL1        0.0472
     34 C         142.5487  139.9024  166.9147 C.2     1  UNL1       -0.0005
     35 C         142.2292  138.7402  166.0218 C.2     1  UNL1        0.0942
     36 N         142.4969  139.1563  164.6058 N.2     1  UNL1       -0.2482
     37 C         142.9819  140.5757  164.6235 C.2     1  UNL1        0.0631
     38 C         143.3984  141.5078  163.5246 C.3     1  UNL1        0.0717
     39 C         143.8470  142.9010  163.8528 C.2     1  UNL1       -0.0198
     40 C         143.8790  143.3621  165.2798 C.2     1  UNL1       -0.0042
     41 C         143.4624  142.4300  166.3787 C.2     1  UNL1        0.0006
     42 C         143.0139  141.0368  166.0505 C.2     1  UNL1        0.0114
@<TRIPOS>BOND
     1    21    22    1
     2    22    23   ar
     3    23    24   ar
     4    24    25   ar
     5    25    26   ar
     6    26     1    1
     7     1     2   ar
     8     2     3   ar
     9     3     4    1
    10     3     5   ar
    11     5    27    1
    12    27    28    1
    13    28    29    1
    14    29    30    1
    15    29    33    1
    16    33    34    1
    17    34    35    2
    18    35    36    1
    19    36    37    2
    20    37    38    1
    21    38    39    1
    22    39    40    2
    23    40    41    1
    24    41    42    2
    25     5     6   ar
    26     6     7   ar
    27     7    10    1
    28    10    11   ar
    29    11    12   ar
    30    12    13   ar
    31    13    14   ar
    32    14    15   ar
    33    15    16   ar
    34    16    17    1
    35    16    18   ar
    36    18    19   ar
    37    26    22   ar
    38     7     1   ar
    39    19    10   ar
    40    42    34    1
    41    18    13    1
    42    42    37    1
    43     4     8    1
    44     4     9    1
    45    30    31    1
    46    30    32    1
    47    19    20    1
@<TRIPOS>MOLECULE
*****
 42 47 0 0 0
SMALL
GASTEIGER

@<TRIPOS>ATOM
      1 C         140.3359  138.9665  163.6281 C.ar    1  UNL1        0.0870
      2 N         139.9748  138.8507  162.1768 N.ar    1  UNL1       -0.2279
      3 C         140.9989  139.1512  161.1228 C.ar    1  UNL1        0.1596
      4 N         140.6377  139.0354  159.6716 N.pl3   1  UNL1       -0.3402
      5 C         142.3842  139.5674  161.5201 C.ar    1  UNL1        0.1696
      6 C         142.7454  139.6832  162.9713 C.ar    1  UNL1        0.0428
      7 C         141.7212  139.3827  164.0253 C.ar    1  UNL1        0.0380
      8 H         139.7285  138.7622  159.4108 H       1  UNL1        0.1438
      9 H         141.3099  139.2326  158.9798 H       1  UNL1        0.1438
     10 C         142.0823  139.4985  165.4766 C.ar    1  UNL1        0.0777
     11 C         142.9953  138.4878  166.1052 C.ar    1  UNL1        0.1176
     12 N         143.3564  138.6035  167.5565 N.ar    1  UNL1       -0.2209
     13 C         142.8047  139.7299  168.3791 C.ar    1  UNL1        0.2006
     14 N         142.9822  140.0997  169.8219 N.ar    1  UNL1       -0.1272
     15 N         142.1790  141.3389  170.0851 N.ar    1  UNL1       -0.1493
     16 C         141.5051  141.7350  168.8049 C.ar    1  UNL1        0.0995
     17 C         140.6029  142.9178  168.6127 C.3     1  UNL1        0.0557
     18 C         141.8918  140.7406  167.7505 C.ar    1  UNL1        0.1101
     19 N         141.5307  140.6248  166.2993 N.ar    1  UNL1       -0.3484
     20 H         140.9315  141.2882  165.8867 H       1  UNL1        0.1661
     21 C         138.1502  141.0687  164.8333 C.3     1  UNL1        0.0725
     22 C         138.3072  139.6323  165.2361 C.ar    1  UNL1        0.1248
     23 O         137.4870  138.9100  166.2636 O.2     1  UNL1       -0.4546
     24 C         137.9849  137.4974  166.3446 C.ar    1  UNL1        0.1792
     25 C         139.1127  137.3465  165.3672 C.ar    1  UNL1        0.0448
     26 C         139.3118  138.6660  164.6821 C.ar    1  UNL1        0.0512
     27 O         143.4083  139.8679  160.4661 O.3     1  UNL1       -0.4712
     28 C         143.4491  141.2233  159.8248 C.3     1  UNL1        0.2211
     29 C         142.4843  142.2871  160.2579 C.3     1  UNL1        0.0995
     30 N         141.0652  142.2550  159.7731 N.3     1  UNL1       -0.3190
     31 H         140.5546  143.0471  160.1632 H       1  UNL1        0.1189
     32 H         140.6235  141.3854  160.0716 H       1  UNL1        0.1189
     33 C         142.9387  143.3831  161.1758 C.3     1  UNL1        0.0472
     34 C         142.4505  143.4246  162.5936 C.2     1  UNL1       -0.0005
     35 C         143.2286  143.0082  163.8065 C.2     1  UNL1        0.0942
     36 N         142.3575  143.2160  165.0098 N.2     1  UNL1       -0.2482
     37 C         141.0411  143.7609  164.5406 C.2     1  UNL1        0.0631
     38 C         139.7975  144.1563  165.2802 C.3     1  UNL1        0.0717
     39 C         138.6113  144.6807  164.5264 C.2     1  UNL1       -0.0198
     40 C         138.6688  144.8096  163.0331 C.2     1  UNL1       -0.0042
     41 C         139.9125  144.4141  162.2935 C.2     1  UNL1        0.0006
     42 C         141.0986  143.8898  163.0472 C.2     1  UNL1        0.0114
@<TRIPOS>BOND
     1    21    22    1
     2    22    23   ar
     3    23    24   ar
     4    24    25   ar
     5    25    26   ar
     6    26     1    1
     7     1     2   ar
     8     2     3   ar
     9     3     4    1
    10     3     5   ar
    11     5    27    1
    12    27    28    1
    13    28    29    1
    14    29    30    1
    15    29    33    1
    16    33    34    1
    17    34    35    2
    18    35    36    1
    19    36    37    2
    20    37    38    1
    21    38    39    1
    22    39    40    2
    23    40    41    1
    24    41    42    2
    25     5     6   ar
    26     6     7   ar
    27     7    10    1
    28    10    11   ar
    29    11    12   ar
    30    12    13   ar
    31    13    14   ar
    32    14    15   ar
    33    15    16   ar
    34    16    17    1
    35    16    18   ar
    36    18    19   ar
    37    26    22   ar
    38     7     1   ar
    39    19    10   ar
    40    42    34    1
    41    18    13    1
    42    42    37    1
    43     4     8    1
    44     4     9    1
    45    30    31    1
    46    30    32    1
    47    19    20    1
@<TRIPOS>MOLECULE
*****
 42 47 0 0 0
SMALL
GASTEIGER

@<TRIPOS>ATOM
      1 C         140.6697  142.9553  162.9998 C.ar    1  UNL1        0.0870
      2 N         140.7750  143.2948  161.5425 N.ar    1  UNL1       -0.2279
      3 C         141.8616  142.6854  160.7070 C.ar    1  UNL1        0.1596
      4 N         141.9668  143.0249  159.2498 N.pl3   1  UNL1       -0.3402
      5 C         142.8430  141.7366  161.3289 C.ar    1  UNL1        0.1696
      6 C         142.7378  141.3972  162.7862 C.ar    1  UNL1        0.0428
      7 C         141.6511  142.0066  163.6216 C.ar    1  UNL1        0.0380
      8 H         141.3227  143.6476  158.8416 H       1  UNL1        0.1438
      9 H         142.6800  142.6250  158.7014 H       1  UNL1        0.1438
     10 C         141.5459  141.6671  165.0789 C.ar    1  UNL1        0.0777
     11 C         142.5980  142.1410  166.0373 C.ar    1  UNL1        0.1176
     12 N         142.4928  141.8016  167.4945 N.ar    1  UNL1       -0.2209
     13 C         141.3354  140.9883  167.9935 C.ar    1  UNL1        0.2006
     14 N         140.9672  140.5017  169.3638 N.ar    1  UNL1       -0.1272
     15 N         139.6875  139.7271  169.2524 N.ar    1  UNL1       -0.1493
     16 C         139.2649  139.7350  167.8132 C.ar    1  UNL1        0.0995
     17 C         138.0389  139.0786  167.2508 C.3     1  UNL1        0.0557
     18 C         140.2833  140.5144  167.0352 C.ar    1  UNL1        0.1101
     19 N         140.3885  140.8538  165.5779 N.ar    1  UNL1       -0.3484
     20 H         139.6980  140.5428  164.9489 H       1  UNL1        0.1661
     21 C         137.5548  141.9875  163.0980 C.3     1  UNL1        0.0725
     22 C         138.1513  143.1198  163.8804 C.ar    1  UNL1        0.1248
     23 O         137.4208  144.0060  164.8452 O.2     1  UNL1       -0.4546
     24 C         138.4011  144.9986  165.3964 C.ar    1  UNL1        0.1792
     25 C         139.7375  144.7258  164.7722 C.ar    1  UNL1        0.0448
     26 C         139.5831  143.5647  163.8352 C.ar    1  UNL1        0.0512
     27 O         143.9297  141.1273  160.4935 O.3     1  UNL1       -0.4712
     28 C         143.7488  139.7568  159.9114 C.3     1  UNL1        0.2211
     29 C         142.5979  139.4792  158.9902 C.3     1  UNL1        0.0995
     30 N         142.3652  140.3558  157.7955 N.3     1  UNL1       -0.3190
     31 H         141.5466  140.0245  157.2850 H       1  UNL1        0.1189
     32 H         143.1822  140.3235  157.1858 H       1  UNL1        0.1189
     33 C         141.6798  138.3248  159.2638 C.3     1  UNL1        0.0472
     34 C         140.5191  138.4949  160.1985 C.2     1  UNL1       -0.0005
     35 C         139.1787  139.0679  159.8447 C.2     1  UNL1        0.0942
     36 N         138.3262  139.0490  161.0788 N.2     1  UNL1       -0.2482
     37 C         139.1397  138.4643  162.1952 C.2     1  UNL1        0.0631
     38 C         138.8214  138.1995  163.6369 C.3     1  UNL1        0.0717
     39 C         139.8583  137.5922  164.5346 C.2     1  UNL1       -0.0198
     40 C         141.2136  137.2498  163.9905 C.2     1  UNL1       -0.0042
     41 C         141.5319  137.5146  162.5489 C.2     1  UNL1        0.0006
     42 C         140.4949  138.1219  161.6512 C.2     1  UNL1        0.0114
@<TRIPOS>BOND
     1    21    22    1
     2    22    23   ar
     3    23    24   ar
     4    24    25   ar
     5    25    26   ar
     6    26     1    1
     7     1     2   ar
     8     2     3   ar
     9     3     4    1
    10     3     5   ar
    11     5    27    1
    12    27    28    1
    13    28    29    1
    14    29    30    1
    15    29    33    1
    16    33    34    1
    17    34    35    2
    18    35    36    1
    19    36    37    2
    20    37    38    1
    21    38    39    1
    22    39    40    2
    23    40    41    1
    24    41    42    2
    25     5     6   ar
    26     6     7   ar
    27     7    10    1
    28    10    11   ar
    29    11    12   ar
    30    12    13   ar
    31    13    14   ar
    32    14    15   ar
    33    15    16   ar
    34    16    17    1
    35    16    18   ar
    36    18    19   ar
    37    26    22   ar
    38     7     1   ar
    39    19    10   ar
    40    42    34    1
    41    18    13    1
    42    42    37    1
    43     4     8    1
    44     4     9    1
    45    30    31    1
    46    30    32    1
    47    19    20    1
