@<TRIPOS>MOLECULE
*****
 37 39 0 0 0
SMALL
GASTEIGER

@<TRIPOS>ATOM
      1 N         138.8835  139.2417  163.1600 N.am    1  UNL1       -0.2797
      2 C         139.4879  138.1277  162.3577 C.3     1  UNL1        0.0956
      3 C         139.0080  138.2621  160.9429 C.3     1  UNL1        0.0505
      4 C         138.1070  139.4592  160.8708 C.3     1  UNL1        0.1507
      5 C         138.0301  140.0646  162.2410 C.2     1  UNL1        0.2435
      6 O         137.2386  141.2796  162.6249 O.2     1  UNL1       -0.2731
      7 C         139.5190  139.9847  167.5525 C.3     1  UNL1        0.0577
      8 C         138.3909  139.1079  167.0957 C.3     1  UNL1        0.0177
      9 C         138.1791  138.8603  165.6315 C.3     1  UNL1        0.0212
     10 C         139.0953  139.4894  164.6242 C.3     1  UNL1        0.0771
     11 C         140.2234  140.3661  165.0810 C.3     1  UNL1        0.0432
     12 C         140.4353  140.6137  166.5452 C.3     1  UNL1        0.0194
     13 N         139.7309  140.2323  169.0167 N.3     1  UNL1       -0.2741
     14 C         138.5651  140.1957  169.9599 C.3     1  UNL1        0.0896
     15 C         142.0758  139.3907  169.7534 C.3     1  UNL1        0.0173
     16 C         141.1084  140.5165  169.5377 C.3     1  UNL1        0.0576
     17 C         141.5187  141.9267  169.8430 C.3     1  UNL1        0.0173
     18 C         141.1397  140.9952  164.0737 C.3     1  UNL1        0.1525
     19 S         141.4349  142.4642  164.1429 S.O2    1  UNL1       -0.0082
     20 C         141.7302  143.9333  164.2120 C.3     1  UNL1        0.1760
     21 O         140.0178  142.7672  163.7559 O.2     1  UNL1       -0.1729
     22 O         142.8521  142.1612  164.5298 O.2     1  UNL1       -0.1729
     23 N         137.4060  139.9624  159.6439 N.am    1  UNL1       -0.2948
     24 C         138.0891  140.9453  158.7398 C.2     1  UNL1        0.2462
     25 O         139.4732  141.4248  159.0626 O.2     1  UNL1       -0.2701
     26 H         136.4975  139.6477  159.4320 H       1  UNL1        0.1501
     27 C         137.3881  141.4485  157.5130 C.ar    1  UNL1        0.0564
     28 C         137.8679  142.6970  156.8340 C.ar    1  UNL1        0.0047
     29 C         137.1669  143.2003  155.6070 C.ar    1  UNL1        0.0033
     30 C         135.9860  142.4551  155.0591 C.ar    1  UNL1        0.0372
     31 C         135.5062  141.2066  155.7381 C.ar    1  UNL1        0.1469
     32 C         136.2072  140.7033  156.9650 C.ar    1  UNL1        0.0417
     33 O         134.3253  140.4614  155.1902 O.3     1  UNL1       -0.4045
     34 C         133.0837  140.3104  156.0183 C.3     1  UNL1        0.5753
     35 F         131.8422  140.1594  156.8463 F       1  UNL1       -0.1328
     36 F         133.4083  138.8630  156.2410 F       1  UNL1       -0.1328
     37 F         132.7591  141.7578  155.7955 F       1  UNL1       -0.1328
@<TRIPOS>BOND
     1    15    16    1
     2    16    17    1
     3    16    13    1
     4    13    14    1
     5     7    13    1
     6     7     8    1
     7     8     9    1
     8     9    10    1
     9    10     1    1
    10     1     2    1
    11     2     3    1
    12     3     4    1
    13     4    23    1
    14    23    24   am
    15    24    25    2
    16    24    27    1
    17    27    28   ar
    18    28    29   ar
    19    29    30   ar
    20    30    31   ar
    21    31    33    1
    22    33    34    1
    23    34    35    1
    24    34    36    1
    25    34    37    1
    26    31    32   ar
    27     4     5    1
    28     5     6    2
    29    10    11    1
    30    11    18    1
    31    18    19    1
    32    19    20    1
    33    19    21    2
    34    19    22    2
    35    11    12    1
    36    12     7    1
    37     5     1   am
    38    32    27   ar
    39    23    26    1
@<TRIPOS>MOLECULE
*****
 37 39 0 0 0
SMALL
GASTEIGER

@<TRIPOS>ATOM
      1 N         142.9090  139.1507  162.9313 N.am    1  UNL1       -0.2797
      2 C         144.0752  139.7323  162.1885 C.3     1  UNL1        0.0956
      3 C         144.2388  138.9661  160.9093 C.3     1  UNL1        0.0505
      4 C         143.1737  137.9110  160.8616 C.3     1  UNL1        0.1507
      5 C         142.3519  138.0251  162.1112 C.2     1  UNL1        0.2435
      6 O         141.1788  137.1646  162.4766 O.2     1  UNL1       -0.2731
      7 C         141.3550  140.5389  166.9198 C.3     1  UNL1        0.0577
      8 C         142.5188  139.5949  166.8556 C.3     1  UNL1        0.0177
      9 C         143.0368  139.1321  165.5262 C.3     1  UNL1        0.0212
     10 C         142.3910  139.6134  164.2608 C.3     1  UNL1        0.0771
     11 C         141.2272  140.5575  164.3249 C.3     1  UNL1        0.0432
     12 C         140.7092  141.0203  165.6544 C.3     1  UNL1        0.0194
     13 N         140.8369  141.0017  168.2492 N.3     1  UNL1       -0.2741
     14 C         139.7869  140.2039  168.9640 C.3     1  UNL1        0.0896
     15 C         142.8424  142.4190  169.0975 C.3     1  UNL1        0.0173
     16 C         141.3690  142.2622  168.8640 C.3     1  UNL1        0.0576
     17 C         140.4276  143.3661  169.2452 C.3     1  UNL1        0.0173
     18 C         140.5813  141.0389  163.0595 C.3     1  UNL1        0.1525
     19 S         139.0868  141.1264  162.9665 S.O2    1  UNL1       -0.0082
     20 C         137.5922  141.2139  162.8736 C.3     1  UNL1        0.1760
     21 O         139.0008  139.6291  162.9399 O.2     1  UNL1       -0.1729
     22 O         139.1728  142.6236  162.9932 O.2     1  UNL1       -0.1729
     23 N         142.9667  136.9164  159.7579 N.am    1  UNL1       -0.2948
     24 C         142.6762  137.3913  158.3651 C.2     1  UNL1        0.2462
     25 O         142.5927  138.8608  158.0758 O.2     1  UNL1       -0.2701
     26 H         143.0215  135.9520  159.9478 H       1  UNL1        0.1501
     27 C         142.4692  136.3967  157.2615 C.ar    1  UNL1        0.0564
     28 C         141.3371  136.5751  156.2937 C.ar    1  UNL1        0.0047
     29 C         141.1301  135.5804  155.1901 C.ar    1  UNL1        0.0033
     30 C         142.0552  134.4075  155.0543 C.ar    1  UNL1        0.0372
     31 C         143.1873  134.2291  156.0221 C.ar    1  UNL1        0.1469
     32 C         143.3943  135.2238  157.1257 C.ar    1  UNL1        0.0417
     33 O         144.1123  133.0562  155.8863 O.3     1  UNL1       -0.4045
     34 C         144.2123  132.0479  156.9924 C.3     1  UNL1        0.5753
     35 F         144.3124  131.0397  158.0985 F       1  UNL1       -0.1328
     36 F         145.7041  132.0256  156.8371 F       1  UNL1       -0.1328
     37 F         142.7206  132.0703  157.1477 F       1  UNL1       -0.1328
@<TRIPOS>BOND
     1    15    16    1
     2    16    17    1
     3    16    13    1
     4    13    14    1
     5     7    13    1
     6     7     8    1
     7     8     9    1
     8     9    10    1
     9    10     1    1
    10     1     2    1
    11     2     3    1
    12     3     4    1
    13     4    23    1
    14    23    24   am
    15    24    25    2
    16    24    27    1
    17    27    28   ar
    18    28    29   ar
    19    29    30   ar
    20    30    31   ar
    21    31    33    1
    22    33    34    1
    23    34    35    1
    24    34    36    1
    25    34    37    1
    26    31    32   ar
    27     4     5    1
    28     5     6    2
    29    10    11    1
    30    11    18    1
    31    18    19    1
    32    19    20    1
    33    19    21    2
    34    19    22    2
    35    11    12    1
    36    12     7    1
    37     5     1   am
    38    32    27   ar
    39    23    26    1
@<TRIPOS>MOLECULE
*****
 37 39 0 0 0
SMALL
GASTEIGER

@<TRIPOS>ATOM
      1 N         143.2247  139.3066  163.2475 N.am    1  UNL1       -0.2797
      2 C         144.3819  139.8517  162.4640 C.3     1  UNL1        0.0956
      3 C         144.3707  139.2054  161.1104 C.3     1  UNL1        0.0505
      4 C         143.2065  138.2610  161.0573 C.3     1  UNL1        0.1507
      5 C         142.4983  138.3236  162.3781 C.2     1  UNL1        0.2435
      6 O         141.2779  137.5405  162.7620 O.2     1  UNL1       -0.2731
      7 C         142.1253  140.4245  167.4655 C.3     1  UNL1        0.0577
      8 C         142.9098  139.1736  167.2014 C.3     1  UNL1        0.0177
      9 C         143.2762  138.8010  165.7953 C.3     1  UNL1        0.0212
     10 C         142.8582  139.6793  164.6535 C.3     1  UNL1        0.0771
     11 C         142.0738  140.9302  164.9177 C.3     1  UNL1        0.0432
     12 C         141.7074  141.3028  166.3237 C.3     1  UNL1        0.0194
     13 N         141.7589  140.7972  168.8715 N.3     1  UNL1       -0.2741
     14 C         140.9108  139.8741  169.6952 C.3     1  UNL1        0.0896
     15 C         141.2640  143.1940  169.7434 C.3     1  UNL1        0.0173
     16 C         142.2406  142.0929  169.4538 C.3     1  UNL1        0.0576
     17 C         143.6989  142.2875  169.7465 C.3     1  UNL1        0.0173
     18 C         141.6558  141.8085  163.7758 C.3     1  UNL1        0.1525
     19 S         141.8742  143.2906  163.8506 S.O2    1  UNL1       -0.0082
     20 C         142.0925  144.7728  163.9255 C.3     1  UNL1        0.1760
     21 O         143.3540  143.0788  163.7278 O.2     1  UNL1       -0.1729
     22 O         140.3943  143.5025  163.9735 O.2     1  UNL1       -0.1729
     23 N         142.8187  137.4044  159.8886 N.am    1  UNL1       -0.2948
     24 C         142.3499  138.0418  158.6143 C.2     1  UNL1        0.2462
     25 O         142.2689  139.5359  158.5086 O.2     1  UNL1       -0.2701
     26 H         142.8719  136.4238  159.9579 H       1  UNL1        0.1501
     27 C         141.9621  137.1852  157.4457 C.ar    1  UNL1        0.0564
     28 C         140.7703  137.5500  156.6111 C.ar    1  UNL1        0.0047
     29 C         140.3824  136.6933  155.4424 C.ar    1  UNL1        0.0033
     30 C         141.1864  135.4719  155.1084 C.ar    1  UNL1        0.0372
     31 C         142.3782  135.1070  155.9429 C.ar    1  UNL1        0.1469
     32 C         142.7661  135.9637  157.1116 C.ar    1  UNL1        0.0417
     33 O         143.1822  133.8856  155.6088 O.3     1  UNL1       -0.4045
     34 C         143.0881  132.6654  156.4762 C.3     1  UNL1        0.5753
     35 F         142.9940  131.4453  157.3436 F       1  UNL1       -0.1328
     36 F         141.7251  132.3758  155.9210 F       1  UNL1       -0.1328
     37 F         144.4511  132.9551  157.0315 F       1  UNL1       -0.1328
@<TRIPOS>BOND
     1    15    16    1
     2    16    17    1
     3    16    13    1
     4    13    14    1
     5     7    13    1
     6     7     8    1
     7     8     9    1
     8     9    10    1
     9    10     1    1
    10     1     2    1
    11     2     3    1
    12     3     4    1
    13     4    23    1
    14    23    24   am
    15    24    25    2
    16    24    27    1
    17    27    28   ar
    18    28    29   ar
    19    29    30   ar
    20    30    31   ar
    21    31    33    1
    22    33    34    1
    23    34    35    1
    24    34    36    1
    25    34    37    1
    26    31    32   ar
    27     4     5    1
    28     5     6    2
    29    10    11    1
    30    11    18    1
    31    18    19    1
    32    19    20    1
    33    19    21    2
    34    19    22    2
    35    11    12    1
    36    12     7    1
    37     5     1   am
    38    32    27   ar
    39    23    26    1
@<TRIPOS>MOLECULE
*****
 37 39 0 0 0
SMALL
GASTEIGER

@<TRIPOS>ATOM
      1 N         138.9473  140.2438  163.8509 N.am    1  UNL1       -0.2797
      2 C         137.7249  140.7947  163.1785 C.3     1  UNL1        0.0956
      3 C         137.6762  140.2461  161.7833 C.3     1  UNL1        0.0505
      4 C         138.8686  139.3560  161.5934 C.3     1  UNL1        0.1507
      5 C         139.6541  139.3546  162.8712 C.2     1  UNL1        0.2435
      6 O         140.9236  138.5970  163.1249 O.2     1  UNL1       -0.2731
      7 C         140.2629  141.1068  168.0669 C.3     1  UNL1        0.0577
      8 C         139.3427  139.9552  167.7892 C.3     1  UNL1        0.0177
      9 C         138.9042  139.6676  166.3839 C.3     1  UNL1        0.0212
     10 C         139.3858  140.5314  165.2562 C.3     1  UNL1        0.0771
     11 C         140.3060  141.6830  165.5339 C.3     1  UNL1        0.0432
     12 C         140.7446  141.9706  166.9392 C.3     1  UNL1        0.0194
     13 N         140.7015  141.3944  169.4722 N.3     1  UNL1       -0.2741
     14 C         140.5285  140.3548  170.5395 C.3     1  UNL1        0.0896
     15 C         142.7881  142.8256  170.0618 C.3     1  UNL1        0.0173
     16 C         141.3130  142.7217  169.8102 C.3     1  UNL1        0.0576
     17 C         140.4495  143.9452  169.8966 C.3     1  UNL1        0.0173
     18 C         140.7877  142.5469  164.4062 C.3     1  UNL1        0.1525
     19 S         142.2532  142.8245  164.2472 S.O2    1  UNL1       -0.0082
     20 C         143.7187  143.1022  164.0882 C.3     1  UNL1        0.1760
     21 O         142.5154  141.3551  164.0989 O.2     1  UNL1       -0.1729
     22 O         141.9909  144.2939  164.3954 O.2     1  UNL1       -0.1729
     23 N         139.2147  138.6001  160.3448 N.am    1  UNL1       -0.2948
     24 C         140.2641  139.1306  159.4135 C.2     1  UNL1        0.2462
     25 O         140.9674  140.4169  159.7306 O.2     1  UNL1       -0.2701
     26 H         138.7531  137.7559  160.1367 H       1  UNL1        0.1501
     27 C         140.6101  138.3747  158.1650 C.ar    1  UNL1        0.0564
     28 C         139.5925  138.2239  157.0733 C.ar    1  UNL1        0.0047
     29 C         139.9386  137.4679  155.8247 C.ar    1  UNL1        0.0033
     30 C         141.3021  136.8627  155.6679 C.ar    1  UNL1        0.0372
     31 C         142.3196  137.0135  156.7596 C.ar    1  UNL1        0.1469
     32 C         141.9736  137.7695  158.0082 C.ar    1  UNL1        0.0417
     33 O         143.6831  136.4084  156.6028 O.3     1  UNL1       -0.4045
     34 C         143.8257  134.9379  156.3434 C.3     1  UNL1        0.5753
     35 F         143.9683  133.4674  156.0839 F       1  UNL1       -0.1328
     36 F         143.5979  134.6589  157.7995 F       1  UNL1       -0.1328
     37 F         144.0535  135.2169  154.8873 F       1  UNL1       -0.1328
@<TRIPOS>BOND
     1    15    16    1
     2    16    17    1
     3    16    13    1
     4    13    14    1
     5     7    13    1
     6     7     8    1
     7     8     9    1
     8     9    10    1
     9    10     1    1
    10     1     2    1
    11     2     3    1
    12     3     4    1
    13     4    23    1
    14    23    24   am
    15    24    25    2
    16    24    27    1
    17    27    28   ar
    18    28    29   ar
    19    29    30   ar
    20    30    31   ar
    21    31    33    1
    22    33    34    1
    23    34    35    1
    24    34    36    1
    25    34    37    1
    26    31    32   ar
    27     4     5    1
    28     5     6    2
    29    10    11    1
    30    11    18    1
    31    18    19    1
    32    19    20    1
    33    19    21    2
    34    19    22    2
    35    11    12    1
    36    12     7    1
    37     5     1   am
    38    32    27   ar
    39    23    26    1
@<TRIPOS>MOLECULE
*****
 37 39 0 0 0
SMALL
GASTEIGER

@<TRIPOS>ATOM
      1 N         140.3886  139.4209  163.5122 N.am    1  UNL1       -0.2797
      2 C         139.2617  138.4627  163.2636 C.3     1  UNL1        0.0956
      3 C         139.3246  138.0357  161.8270 C.3     1  UNL1        0.0505
      4 C         140.4906  138.7300  161.1878 C.3     1  UNL1        0.1507
      5 C         141.1481  139.5861  162.2293 C.2     1  UNL1        0.2435
      6 O         142.3535  140.4548  162.0239 O.2     1  UNL1       -0.2731
      7 C         141.3263  141.4447  167.4205 C.3     1  UNL1        0.0577
      8 C         142.0001  140.1528  167.0643 C.3     1  UNL1        0.0177
      9 C         141.6875  139.4782  165.7615 C.3     1  UNL1        0.0212
     10 C         140.7012  140.0955  164.8150 C.3     1  UNL1        0.0771
     11 C         140.0274  141.3874  165.1712 C.3     1  UNL1        0.0432
     12 C         140.3400  142.0620  166.4739 C.3     1  UNL1        0.0194
     13 N         141.6388  142.1193  168.7233 N.3     1  UNL1       -0.2741
     14 C         143.0655  142.3170  169.1422 C.3     1  UNL1        0.0896
     15 C         139.5302  141.6162  170.1551 C.3     1  UNL1        0.0173
     16 C         140.5248  142.5962  169.6072 C.3     1  UNL1        0.0576
     17 C         140.4052  144.0533  169.9431 C.3     1  UNL1        0.0173
     18 C         139.0410  142.0048  164.2246 C.3     1  UNL1        0.1525
     19 S         139.1747  143.4479  163.8380 S.O2    1  UNL1       -0.0082
     20 C         139.3084  144.8911  163.4513 C.3     1  UNL1        0.1760
     21 O         137.9130  143.7649  164.5848 O.2     1  UNL1       -0.1729
     22 O         140.4363  143.1310  163.0912 O.2     1  UNL1       -0.1729
     23 N         140.9230  138.5923  159.7581 N.am    1  UNL1       -0.2948
     24 C         142.2502  137.9740  159.4321 C.2     1  UNL1        0.2462
     25 O         143.1450  137.4933  160.5359 O.2     1  UNL1       -0.2701
     26 H         140.3357  138.9078  159.0336 H       1  UNL1        0.1501
     27 C         142.6826  137.8364  158.0025 C.ar    1  UNL1        0.0564
     28 C         143.0849  139.0515  157.2204 C.ar    1  UNL1        0.0047
     29 C         143.5173  138.9139  155.7906 C.ar    1  UNL1        0.0033
     30 C         143.5474  137.5613  155.1430 C.ar    1  UNL1        0.0372
     31 C         143.1451  136.3461  155.9251 C.ar    1  UNL1        0.1469
     32 C         142.7127  136.4837  157.3549 C.ar    1  UNL1        0.0417
     33 O         143.1752  134.9935  155.2775 O.3     1  UNL1       -0.4045
     34 C         142.8506  133.7696  156.0817 C.3     1  UNL1        0.5753
     35 F         142.5260  132.5457  156.8859 F       1  UNL1       -0.1328
     36 F         144.2850  133.6697  156.5087 F       1  UNL1       -0.1328
     37 F         141.4161  133.8695  155.6547 F       1  UNL1       -0.1328
@<TRIPOS>BOND
     1    15    16    1
     2    16    17    1
     3    16    13    1
     4    13    14    1
     5     7    13    1
     6     7     8    1
     7     8     9    1
     8     9    10    1
     9    10     1    1
    10     1     2    1
    11     2     3    1
    12     3     4    1
    13     4    23    1
    14    23    24   am
    15    24    25    2
    16    24    27    1
    17    27    28   ar
    18    28    29   ar
    19    29    30   ar
    20    30    31   ar
    21    31    33    1
    22    33    34    1
    23    34    35    1
    24    34    36    1
    25    34    37    1
    26    31    32   ar
    27     4     5    1
    28     5     6    2
    29    10    11    1
    30    11    18    1
    31    18    19    1
    32    19    20    1
    33    19    21    2
    34    19    22    2
    35    11    12    1
    36    12     7    1
    37     5     1   am
    38    32    27   ar
    39    23    26    1
@<TRIPOS>MOLECULE
*****
 37 39 0 0 0
SMALL
GASTEIGER

@<TRIPOS>ATOM
      1 N         139.2147  142.3383  164.0978 N.am    1  UNL1       -0.2797
      2 C         137.8214  142.7146  163.6889 C.3     1  UNL1        0.0956
      3 C         137.8521  143.1019  162.2401 C.3     1  UNL1        0.0505
      4 C         139.2644  142.9650  161.7535 C.3     1  UNL1        0.1507
      5 C         140.1064  142.4931  162.9016 C.2     1  UNL1        0.2435
      6 O         141.5814  142.2233  162.8608 O.2     1  UNL1       -0.2731
      7 C         140.4944  140.9831  168.1936 C.3     1  UNL1        0.0577
      8 C         140.5272  142.4408  167.8416 C.3     1  UNL1        0.0177
      9 C         140.1007  142.8926  166.4764 C.3     1  UNL1        0.0212
     10 C         139.6412  141.8866  165.4630 C.3     1  UNL1        0.0771
     11 C         139.6083  140.4289  165.8150 C.3     1  UNL1        0.0432
     12 C         140.0349  139.9771  167.1803 C.3     1  UNL1        0.0194
     13 N         140.9209  140.5314  169.5589 N.3     1  UNL1       -0.2741
     14 C         139.9124  140.4304  170.6646 C.3     1  UNL1        0.0896
     15 C         142.7582  138.7458  169.9906 C.3     1  UNL1        0.0173
     16 C         142.3560  140.1807  169.8184 C.3     1  UNL1        0.0576
     17 C         143.3891  141.2648  169.9059 C.3     1  UNL1        0.0173
     18 C         139.1489  139.4228  164.8017 C.3     1  UNL1        0.1525
     19 S         140.0119  138.2406  164.4739 S.O2    1  UNL1       -0.0082
     20 C         140.8750  137.0583  164.1461 C.3     1  UNL1        0.1760
     21 O         139.0039  137.3288  165.1083 O.2     1  UNL1       -0.1729
     22 O         141.0199  139.1523  163.8394 O.2     1  UNL1       -0.1729
     23 N         139.7494  143.2500  160.3630 N.am    1  UNL1       -0.2948
     24 C         139.9415  144.6674  159.9114 C.2     1  UNL1        0.2462
     25 O         139.6485  145.7999  160.8503 O.2     1  UNL1       -0.2701
     26 H         139.9417  142.5067  159.7467 H       1  UNL1        0.1501
     27 C         140.4265  144.9523  158.5209 C.ar    1  UNL1        0.0564
     28 C         141.7702  145.5849  158.3102 C.ar    1  UNL1        0.0047
     29 C         142.2553  145.8698  156.9197 C.ar    1  UNL1        0.0033
     30 C         141.3967  145.5221  155.7399 C.ar    1  UNL1        0.0372
     31 C         140.0530  144.8895  155.9506 C.ar    1  UNL1        0.1469
     32 C         139.5679  144.6046  157.3411 C.ar    1  UNL1        0.0417
     33 O         139.1945  144.5418  154.7708 O.3     1  UNL1       -0.4045
     34 C         137.7573  144.1635  154.9746 C.3     1  UNL1        0.5753
     35 F         136.3202  143.7851  155.1784 F       1  UNL1       -0.1328
     36 F         138.1465  142.7160  155.0318 F       1  UNL1       -0.1328
     37 F         137.3682  145.6110  154.9174 F       1  UNL1       -0.1328
@<TRIPOS>BOND
     1    15    16    1
     2    16    17    1
     3    16    13    1
     4    13    14    1
     5     7    13    1
     6     7     8    1
     7     8     9    1
     8     9    10    1
     9    10     1    1
    10     1     2    1
    11     2     3    1
    12     3     4    1
    13     4    23    1
    14    23    24   am
    15    24    25    2
    16    24    27    1
    17    27    28   ar
    18    28    29   ar
    19    29    30   ar
    20    30    31   ar
    21    31    33    1
    22    33    34    1
    23    34    35    1
    24    34    36    1
    25    34    37    1
    26    31    32   ar
    27     4     5    1
    28     5     6    2
    29    10    11    1
    30    11    18    1
    31    18    19    1
    32    19    20    1
    33    19    21    2
    34    19    22    2
    35    11    12    1
    36    12     7    1
    37     5     1   am
    38    32    27   ar
    39    23    26    1
@<TRIPOS>MOLECULE
*****
 37 39 0 0 0
SMALL
GASTEIGER

@<TRIPOS>ATOM
      1 N         142.8989  139.6531  160.1396 N.am    1  UNL1       -0.2797
      2 C         142.6603  140.6141  159.0128 C.3     1  UNL1        0.0956
      3 C         142.7060  139.8421  157.7275 C.3     1  UNL1        0.0505
      4 C         142.9728  138.4039  158.0599 C.3     1  UNL1        0.1507
      5 C         143.0920  138.2871  159.5506 C.2     1  UNL1        0.2435
      6 O         143.3577  137.0257  160.3177 O.2     1  UNL1       -0.2731
      7 C         143.0149  140.6864  164.5178 C.3     1  UNL1        0.0577
      8 C         144.2804  140.6899  163.7126 C.3     1  UNL1        0.0177
      9 C         144.2418  140.3454  162.2532 C.3     1  UNL1        0.0212
     10 C         142.9376  139.9975  161.5990 C.3     1  UNL1        0.0771
     11 C         141.6721  139.9941  162.4042 C.3     1  UNL1        0.0432
     12 C         141.7107  140.3385  163.8636 C.3     1  UNL1        0.0194
     13 N         143.0536  141.0309  165.9772 N.3     1  UNL1       -0.2741
     14 C         143.3480  142.4370  166.4083 C.3     1  UNL1        0.0896
     15 C         143.3249  138.5804  166.7967 C.3     1  UNL1        0.0173
     16 C         142.7978  139.9692  167.0054 C.3     1  UNL1        0.0576
     17 C         142.0149  140.2962  168.2425 C.3     1  UNL1        0.0173
     18 C         140.3678  139.6461  161.7500 C.3     1  UNL1        0.1525
     19 S         139.4662  138.6217  162.3726 S.O2    1  UNL1       -0.0082
     20 C         138.5646  137.5972  162.9952 C.3     1  UNL1        0.1760
     21 O         138.4820  139.6990  162.7199 O.2     1  UNL1       -0.1729
     22 O         140.4504  137.5444  162.0252 O.2     1  UNL1       -0.1729
     23 N         143.0984  137.2799  157.0746 N.am    1  UNL1       -0.2948
     24 C         141.8669  136.6529  156.4912 C.2     1  UNL1        0.2462
     25 O         140.5099  137.1499  156.8930 O.2     1  UNL1       -0.2701
     26 H         143.9890  136.9537  156.8109 H       1  UNL1        0.1501
     27 C         141.9925  135.5289  155.5059 C.ar    1  UNL1        0.0564
     28 C         141.6085  135.7424  154.0717 C.ar    1  UNL1        0.0047
     29 C         141.7341  134.6183  153.0863 C.ar    1  UNL1        0.0033
     30 C         142.2438  133.2809  153.5352 C.ar    1  UNL1        0.0372
     31 C         142.6278  133.0674  154.9694 C.ar    1  UNL1        0.1469
     32 C         142.5022  134.1915  155.9548 C.ar    1  UNL1        0.0417
     33 O         143.1375  131.7300  155.4183 O.3     1  UNL1       -0.4045
     34 C         143.9548  131.6209  156.6714 C.3     1  UNL1        0.5753
     35 F         144.7721  131.5118  157.9244 F       1  UNL1       -0.1328
     36 F         145.1522  132.1457  155.9360 F       1  UNL1       -0.1328
     37 F         142.7574  131.0961  157.4067 F       1  UNL1       -0.1328
@<TRIPOS>BOND
     1    15    16    1
     2    16    17    1
     3    16    13    1
     4    13    14    1
     5     7    13    1
     6     7     8    1
     7     8     9    1
     8     9    10    1
     9    10     1    1
    10     1     2    1
    11     2     3    1
    12     3     4    1
    13     4    23    1
    14    23    24   am
    15    24    25    2
    16    24    27    1
    17    27    28   ar
    18    28    29   ar
    19    29    30   ar
    20    30    31   ar
    21    31    33    1
    22    33    34    1
    23    34    35    1
    24    34    36    1
    25    34    37    1
    26    31    32   ar
    27     4     5    1
    28     5     6    2
    29    10    11    1
    30    11    18    1
    31    18    19    1
    32    19    20    1
    33    19    21    2
    34    19    22    2
    35    11    12    1
    36    12     7    1
    37     5     1   am
    38    32    27   ar
    39    23    26    1
@<TRIPOS>MOLECULE
*****
 37 39 0 0 0
SMALL
GASTEIGER

@<TRIPOS>ATOM
      1 N         141.9929  140.0056  159.6560 N.am    1  UNL1       -0.2797
      2 C         142.4268  140.6798  158.3883 C.3     1  UNL1        0.0956
      3 C         142.8756  139.6179  157.4286 C.3     1  UNL1        0.0505
      4 C         142.7190  138.2874  158.1032 C.3     1  UNL1        0.1507
      5 C         142.1734  138.5269  159.4798 C.2     1  UNL1        0.2435
      6 O         141.8630  137.4729  160.5008 O.2     1  UNL1       -0.2731
      7 C         140.4247  142.0582  163.3408 C.3     1  UNL1        0.0577
      8 C         139.5165  141.8201  162.1710 C.3     1  UNL1        0.0177
      9 C         140.0393  141.1359  160.9427 C.3     1  UNL1        0.0212
     10 C         141.4702  140.6898  160.8843 C.3     1  UNL1        0.0771
     11 C         142.3783  140.9279  162.0541 C.3     1  UNL1        0.0432
     12 C         141.8556  141.6121  163.2823 C.3     1  UNL1        0.0194
     13 N         139.9020  142.7424  164.5691 N.3     1  UNL1       -0.2741
     14 C         139.5857  141.9409  165.7969 C.3     1  UNL1        0.0896
     15 C         138.6113  144.8344  165.4103 C.3     1  UNL1        0.0173
     16 C         139.6956  144.2281  164.5695 C.3     1  UNL1        0.0576
     17 C         140.5734  145.1076  163.7292 C.3     1  UNL1        0.0173
     18 C         143.8093  140.4817  161.9957 C.3     1  UNL1        0.1525
     19 S         144.4694  139.9172  163.2185 S.O2    1  UNL1       -0.0082
     20 C         145.1296  139.3527  164.4415 C.3     1  UNL1        0.1760
     21 O         143.6077  138.6935  163.1188 O.2     1  UNL1       -0.1729
     22 O         145.3311  141.1409  163.3183 O.2     1  UNL1       -0.1729
     23 N         143.0498  136.9517  157.5060 N.am    1  UNL1       -0.2948
     24 C         142.0928  136.2982  156.5535 C.2     1  UNL1        0.2462
     25 O         140.8051  136.9803  156.1982 O.2     1  UNL1       -0.2701
     26 H         143.8950  136.5040  157.7392 H       1  UNL1        0.1501
     27 C         142.4237  134.9626  155.9564 C.ar    1  UNL1        0.0564
     28 C         141.5239  134.3619  154.9175 C.ar    1  UNL1        0.0047
     29 C         141.8548  133.0262  154.3203 C.ar    1  UNL1        0.0033
     30 C         143.0855  132.2913  154.7621 C.ar    1  UNL1        0.0372
     31 C         143.9853  132.8920  155.8011 C.ar    1  UNL1        0.1469
     32 C         143.6544  134.2277  156.3983 C.ar    1  UNL1        0.0417
     33 O         145.2160  132.1570  156.2429 O.3     1  UNL1       -0.4045
     34 C         145.1626  131.2582  157.4426 C.3     1  UNL1        0.5753
     35 F         145.1093  130.3594  158.6423 F       1  UNL1       -0.1328
     36 F         144.6863  130.1302  156.5763 F       1  UNL1       -0.1328
     37 F         145.6390  132.3863  158.3089 F       1  UNL1       -0.1328
@<TRIPOS>BOND
     1    15    16    1
     2    16    17    1
     3    16    13    1
     4    13    14    1
     5     7    13    1
     6     7     8    1
     7     8     9    1
     8     9    10    1
     9    10     1    1
    10     1     2    1
    11     2     3    1
    12     3     4    1
    13     4    23    1
    14    23    24   am
    15    24    25    2
    16    24    27    1
    17    27    28   ar
    18    28    29   ar
    19    29    30   ar
    20    30    31   ar
    21    31    33    1
    22    33    34    1
    23    34    35    1
    24    34    36    1
    25    34    37    1
    26    31    32   ar
    27     4     5    1
    28     5     6    2
    29    10    11    1
    30    11    18    1
    31    18    19    1
    32    19    20    1
    33    19    21    2
    34    19    22    2
    35    11    12    1
    36    12     7    1
    37     5     1   am
    38    32    27   ar
    39    23    26    1
@<TRIPOS>MOLECULE
*****
 37 39 0 0 0
SMALL
GASTEIGER

@<TRIPOS>ATOM
      1 N         142.8192  142.3885  163.4418 N.am    1  UNL1       -0.2797
      2 C         143.2311  143.6078  162.6712 C.3     1  UNL1        0.0956
      3 C         143.6689  143.1672  161.3059 C.3     1  UNL1        0.0505
      4 C         143.5277  141.6757  161.2326 C.3     1  UNL1        0.1507
      5 C         143.0025  141.1945  162.5527 C.2     1  UNL1        0.2435
      6 O         142.7117  139.7693  162.9192 O.2     1  UNL1       -0.2731
      7 C         141.3003  142.3243  167.6772 C.3     1  UNL1        0.0577
      8 C         142.7547  142.0861  167.3984 C.3     1  UNL1        0.0177
      9 C         143.2610  142.1075  165.9865 C.3     1  UNL1        0.0212
     10 C         142.3129  142.3671  164.8536 C.3     1  UNL1        0.0771
     11 C         140.8584  142.6053  165.1325 C.3     1  UNL1        0.0432
     12 C         140.3521  142.5839  166.5443 C.3     1  UNL1        0.0194
     13 N         140.7940  142.3029  169.0890 N.3     1  UNL1       -0.2741
     14 C         140.6214  143.5878  169.8435 C.3     1  UNL1        0.0896
     15 C         141.5593  140.1033  170.2406 C.3     1  UNL1        0.0173
     16 C         140.4603  140.9966  169.7464 C.3     1  UNL1        0.0576
     17 C         139.0275  140.5835  169.9096 C.3     1  UNL1        0.0173
     18 C         139.9102  142.8649  163.9995 C.3     1  UNL1        0.1525
     19 S         138.7096  141.9859  163.8100 S.O2    1  UNL1       -0.0082
     20 C         137.5089  141.1069  163.6205 C.3     1  UNL1        0.1760
     21 O         137.8130  143.1323  164.1733 O.2     1  UNL1       -0.1729
     22 O         139.6061  140.8396  163.4467 O.2     1  UNL1       -0.1729
     23 N         143.8542  140.8163  160.0474 N.am    1  UNL1       -0.2948
     24 C         142.7496  140.2215  159.2251 C.2     1  UNL1        0.2462
     25 O         141.3185  140.4861  159.5880 O.2     1  UNL1       -0.2701
     26 H         144.7935  140.6426  159.8091 H       1  UNL1        0.1501
     27 C         143.0762  139.3621  158.0399 C.ar    1  UNL1        0.0564
     28 C         143.8589  139.9313  156.8938 C.ar    1  UNL1        0.0047
     29 C         144.1856  139.0718  155.7085 C.ar    1  UNL1        0.0033
     30 C         143.7296  137.6434  155.6694 C.ar    1  UNL1        0.0372
     31 C         142.9469  137.0743  156.8155 C.ar    1  UNL1        0.1469
     32 C         142.6203  137.9337  158.0008 C.ar    1  UNL1        0.0417
     33 O         142.4910  135.6458  156.7764 O.3     1  UNL1       -0.4045
     34 C         143.4955  134.5352  156.8634 C.3     1  UNL1        0.5753
     35 F         144.5000  133.4247  156.9505 F       1  UNL1       -0.1328
     36 F         143.4661  134.3917  155.3706 F       1  UNL1       -0.1328
     37 F         143.5249  134.6788  158.3562 F       1  UNL1       -0.1328
@<TRIPOS>BOND
     1    15    16    1
     2    16    17    1
     3    16    13    1
     4    13    14    1
     5     7    13    1
     6     7     8    1
     7     8     9    1
     8     9    10    1
     9    10     1    1
    10     1     2    1
    11     2     3    1
    12     3     4    1
    13     4    23    1
    14    23    24   am
    15    24    25    2
    16    24    27    1
    17    27    28   ar
    18    28    29   ar
    19    29    30   ar
    20    30    31   ar
    21    31    33    1
    22    33    34    1
    23    34    35    1
    24    34    36    1
    25    34    37    1
    26    31    32   ar
    27     4     5    1
    28     5     6    2
    29    10    11    1
    30    11    18    1
    31    18    19    1
    32    19    20    1
    33    19    21    2
    34    19    22    2
    35    11    12    1
    36    12     7    1
    37     5     1   am
    38    32    27   ar
    39    23    26    1
