@<TRIPOS>MOLECULE
*****
 30 31 0 0 0
SMALL
GASTEIGER

@<TRIPOS>ATOM
      1 N         139.1354  144.1085  162.7857 N.3     1  UNL1       -0.2698
      2 C         137.9766  143.2735  162.3276 C.3     1  UNL1        0.0723
      3 C         137.4553  142.1707  163.2006 C.3     1  UNL1        0.0191
      4 C         138.0927  141.9030  164.5317 C.3     1  UNL1        0.0224
      5 C         139.2514  142.7381  164.9899 C.3     1  UNL1        0.0878
      6 C         139.7728  143.8409  164.1168 C.3     1  UNL1        0.0919
      7 N         139.8889  142.4705  166.3211 N.am    1  UNL1       -0.3011
      8 C         141.1187  141.6158  166.4055 C.2     1  UNL1        0.2459
      9 O         141.7110  141.0287  165.1587 O.2     1  UNL1       -0.2701
     10 H         139.5001  142.8558  167.1394 H       1  UNL1        0.1497
     11 C         141.7561  141.3482  167.7367 C.ar    1  UNL1        0.0550
     12 C         141.9395  139.9368  168.2102 C.ar    1  UNL1        0.0160
     13 C         142.5770  139.6692  169.5414 C.ar    1  UNL1        0.0587
     14 CL        142.7604  138.2577  170.0150 Cl      1  UNL1       -0.0822
     15 C         143.0310  140.8130  170.3990 C.ar    1  UNL1        0.0228
     16 C         142.8476  142.2244  169.9255 C.ar    1  UNL1        0.0587
     17 CL        143.3017  143.3682  170.7831 Cl      1  UNL1       -0.0822
     18 C         142.2102  142.4920  168.5943 C.ar    1  UNL1        0.0160
     19 C         139.6567  145.2113  161.9127 C.3     1  UNL1        0.0937
     20 C         140.8628  144.9796  161.0516 C.3     1  UNL1        0.1082
     21 N         144.2467  143.8556  162.7941 N.am    1  UNL1       -0.2921
     22 C         142.8736  143.7949  162.1934 C.2     1  UNL1        0.3007
     23 O         142.1380  142.4891  162.1340 O.2     1  UNL1       -0.2528
     24 N         142.2360  145.0402  161.6522 N.am    1  UNL1       -0.2875
     25 H         144.7295  144.7127  162.8331 H       1  UNL1        0.1508
     26 H         142.7188  145.8973  161.6913 H       1  UNL1        0.1510
     27 C         144.5595  143.0510  164.7318 C.3     1  UNL1        0.0197
     28 C         144.8843  142.6104  163.3353 C.3     1  UNL1        0.0583
     29 C         145.2090  142.1697  161.9388 C.3     1  UNL1        0.0197
     30 C         145.5219  141.3651  163.8764 C.3     1  UNL1        0.0197
@<TRIPOS>BOND
     1    27    28    1
     2    28    29    1
     3    28    30    1
     4    28    21    1
     5    21    22   am
     6    22    23    2
     7    22    24   am
     8    24    20    1
     9    20    19    1
    10    19     1    1
    11     1     2    1
    12     2     3    1
    13     3     4    1
    14     4     5    1
    15     5     7    1
    16     7     8   am
    17     8     9    2
    18     8    11    1
    19    11    12   ar
    20    12    13   ar
    21    13    14    1
    22    13    15   ar
    23    15    16   ar
    24    16    17    1
    25    16    18   ar
    26     5     6    1
    27     6     1    1
    28    18    11   ar
    29    21    25    1
    30    24    26    1
    31     7    10    1
@<TRIPOS>MOLECULE
*****
 30 31 0 0 0
SMALL
GASTEIGER

@<TRIPOS>ATOM
      1 N         139.1238  144.1129  162.7697 N.3     1  UNL1       -0.2698
      2 C         137.9759  143.2639  162.3100 C.3     1  UNL1        0.0723
      3 C         137.4680  142.1536  163.1814 C.3     1  UNL1        0.0191
      4 C         138.1081  141.8924  164.5126 C.3     1  UNL1        0.0224
      5 C         139.2560  142.7414  164.9723 C.3     1  UNL1        0.0878
      6 C         139.7639  143.8517  164.1009 C.3     1  UNL1        0.0919
      7 N         139.8961  142.4802  166.3035 N.am    1  UNL1       -0.3011
      8 C         141.1017  141.5924  166.3947 C.2     1  UNL1        0.2459
      9 O         141.6672  140.9658  165.1548 O.2     1  UNL1       -0.2701
     10 H         139.5250  142.8915  167.1174 H       1  UNL1        0.1497
     11 C         141.7418  141.3312  167.7260 C.ar    1  UNL1        0.0550
     12 C         142.1955  142.4792  168.5782 C.ar    1  UNL1        0.0160
     13 C         142.8356  142.2179  169.9093 C.ar    1  UNL1        0.0587
     14 CL        143.2893  143.3659  170.7616 Cl      1  UNL1       -0.0822
     15 C         143.0220  140.8087  170.3882 C.ar    1  UNL1        0.0228
     16 C         142.5684  139.6608  169.5360 C.ar    1  UNL1        0.0587
     17 CL        142.7548  138.2516  170.0150 Cl      1  UNL1       -0.0822
     18 C         141.9283  139.9220  168.2049 C.ar    1  UNL1        0.0160
     19 C         139.6317  145.2231  161.8982 C.3     1  UNL1        0.0937
     20 C         140.8246  144.9990  161.0169 C.3     1  UNL1        0.1082
     21 N         144.2197  143.8674  162.7323 N.am    1  UNL1       -0.2921
     22 C         142.8375  143.8119  162.1522 C.2     1  UNL1        0.3007
     23 O         142.0863  142.5139  162.1271 O.2     1  UNL1       -0.2528
     24 N         142.2067  145.0545  161.5971 N.am    1  UNL1       -0.2875
     25 H         144.7128  144.7193  162.7488 H       1  UNL1        0.1508
     26 H         142.6998  145.9065  161.6136 H       1  UNL1        0.1510
     27 C         145.1989  142.1809  161.8976 C.3     1  UNL1        0.0197
     28 C         144.8505  142.6249  163.2874 C.3     1  UNL1        0.0583
     29 C         144.5022  143.0689  164.6772 C.3     1  UNL1        0.0197
     30 C         145.4814  141.3823  163.8425 C.3     1  UNL1        0.0197
@<TRIPOS>BOND
     1    27    28    1
     2    28    29    1
     3    28    30    1
     4    28    21    1
     5    21    22   am
     6    22    23    2
     7    22    24   am
     8    24    20    1
     9    20    19    1
    10    19     1    1
    11     1     2    1
    12     2     3    1
    13     3     4    1
    14     4     5    1
    15     5     7    1
    16     7     8   am
    17     8     9    2
    18     8    11    1
    19    11    12   ar
    20    12    13   ar
    21    13    14    1
    22    13    15   ar
    23    15    16   ar
    24    16    17    1
    25    16    18   ar
    26     5     6    1
    27     6     1    1
    28    18    11   ar
    29    21    25    1
    30    24    26    1
    31     7    10    1
@<TRIPOS>MOLECULE
*****
 30 31 0 0 0
SMALL
GASTEIGER

@<TRIPOS>ATOM
      1 N         138.9998  138.8059  162.9181 N.3     1  UNL1       -0.2698
      2 C         139.8607  137.6535  162.4930 C.3     1  UNL1        0.0723
      3 C         140.9686  137.1760  163.3845 C.3     1  UNL1        0.0191
      4 C         141.2155  137.8510  164.7010 C.3     1  UNL1        0.0224
      5 C         140.3546  139.0034  165.1262 C.3     1  UNL1        0.0878
      6 C         139.2468  139.4808  164.2347 C.3     1  UNL1        0.0919
      7 N         140.6015  139.6784  166.4428 N.am    1  UNL1       -0.3011
      8 C         141.4336  140.9250  166.5021 C.2     1  UNL1        0.2459
      9 O         142.0187  141.4967  165.2448 O.2     1  UNL1       -0.2701
     10 H         140.2175  139.3032  167.2680 H       1  UNL1        0.1497
     11 C         141.6805  141.6001  167.8188 C.ar    1  UNL1        0.0550
     12 C         143.0852  141.8448  168.2843 C.ar    1  UNL1        0.0160
     13 C         143.3321  142.5198  169.6009 C.ar    1  UNL1        0.0587
     14 CL        144.7369  142.7645  170.0665 Cl      1  UNL1       -0.0822
     15 C         142.1742  142.9500  170.4519 C.ar    1  UNL1        0.0228
     16 C         140.7695  142.7053  169.9863 C.ar    1  UNL1        0.0587
     17 CL        139.6116  143.1355  170.8373 Cl      1  UNL1       -0.0822
     18 C         140.5226  142.0303  168.6698 C.ar    1  UNL1        0.0160
     19 C         137.8920  139.2833  162.0267 C.3     1  UNL1        0.0937
     20 C         138.1119  140.4584  161.1208 C.3     1  UNL1        0.1082
     21 N         139.1628  143.9521  162.6829 N.am    1  UNL1       -0.2921
     22 C         139.2558  142.5575  162.1383 C.2     1  UNL1        0.3007
     23 O         140.5857  141.8674  162.0668 O.2     1  UNL1       -0.2528
     24 N         138.0188  141.8530  161.6653 N.am    1  UNL1       -0.2875
     25 H         138.2899  144.4050  162.7299 H       1  UNL1        0.1508
     26 H         137.1460  142.3059  161.7123 H       1  UNL1        0.1510
     27 C         140.1044  144.2301  164.5633 C.3     1  UNL1        0.0197
     28 C         140.3997  144.6566  163.1559 C.3     1  UNL1        0.0583
     29 C         140.6949  145.0831  161.7485 C.3     1  UNL1        0.0197
     30 C         141.6366  145.3611  163.6289 C.3     1  UNL1        0.0197
@<TRIPOS>BOND
     1    27    28    1
     2    28    29    1
     3    28    30    1
     4    28    21    1
     5    21    22   am
     6    22    23    2
     7    22    24   am
     8    24    20    1
     9    20    19    1
    10    19     1    1
    11     1     2    1
    12     2     3    1
    13     3     4    1
    14     4     5    1
    15     5     7    1
    16     7     8   am
    17     8     9    2
    18     8    11    1
    19    11    12   ar
    20    12    13   ar
    21    13    14    1
    22    13    15   ar
    23    15    16   ar
    24    16    17    1
    25    16    18   ar
    26     5     6    1
    27     6     1    1
    28    18    11   ar
    29    21    25    1
    30    24    26    1
    31     7    10    1
@<TRIPOS>MOLECULE
*****
 30 31 0 0 0
SMALL
GASTEIGER

@<TRIPOS>ATOM
      1 N         140.1911  138.2642  162.3070 N.3     1  UNL1       -0.2698
      2 C         141.4560  137.8890  161.5934 C.3     1  UNL1        0.0723
      3 C         142.7802  138.0509  162.2790 C.3     1  UNL1        0.0191
      4 C         142.8397  138.5880  163.6783 C.3     1  UNL1        0.0224
      5 C         141.5748  138.9632  164.3919 C.3     1  UNL1        0.0878
      6 C         140.2505  138.8013  163.7062 C.3     1  UNL1        0.0919
      7 N         141.6342  139.5004  165.7912 N.am    1  UNL1       -0.3011
      8 C         141.9217  140.9538  166.0250 C.2     1  UNL1        0.2459
      9 O         142.1498  141.8702  164.8596 O.2     1  UNL1       -0.2701
     10 H         141.4844  138.8989  166.5561 H       1  UNL1        0.1497
     11 C         141.9810  141.4910  167.4244 C.ar    1  UNL1        0.0550
     12 C         140.7190  141.6589  168.2175 C.ar    1  UNL1        0.0160
     13 C         140.7784  142.1960  169.6167 C.ar    1  UNL1        0.0587
     14 CL        139.5163  142.3639  170.4099 Cl      1  UNL1       -0.0822
     15 C         142.0999  142.5652  170.2228 C.ar    1  UNL1        0.0228
     16 C         143.3619  142.3974  169.4298 C.ar    1  UNL1        0.0587
     17 CL        144.6833  142.7666  170.0359 Cl      1  UNL1       -0.0822
     18 C         143.3025  141.8603  168.0305 C.ar    1  UNL1        0.0160
     19 C         138.8668  138.1023  161.6214 C.3     1  UNL1        0.0937
     20 C         138.1335  139.3078  161.1123 C.3     1  UNL1        0.1082
     21 N         137.4971  142.3559  163.5728 N.am    1  UNL1       -0.2921
     22 C         138.1795  141.4309  162.6091 C.2     1  UNL1        0.3007
     23 O         139.5902  141.7038  162.1787 O.2     1  UNL1       -0.2528
     24 N         137.4511  140.2328  162.0760 N.am    1  UNL1       -0.2875
     25 H         136.5712  142.1768  163.8553 H       1  UNL1        0.1508
     26 H         136.5252  140.0537  162.3585 H       1  UNL1        0.1510
     27 C         137.6736  144.3872  162.9874 C.3     1  UNL1        0.0197
     28 C         138.2254  143.5539  164.1059 C.3     1  UNL1        0.0583
     29 C         138.7772  142.7207  165.2244 C.3     1  UNL1        0.0197
     30 C         138.9538  144.7520  164.6392 C.3     1  UNL1        0.0197
@<TRIPOS>BOND
     1    27    28    1
     2    28    29    1
     3    28    30    1
     4    28    21    1
     5    21    22   am
     6    22    23    2
     7    22    24   am
     8    24    20    1
     9    20    19    1
    10    19     1    1
    11     1     2    1
    12     2     3    1
    13     3     4    1
    14     4     5    1
    15     5     7    1
    16     7     8   am
    17     8     9    2
    18     8    11    1
    19    11    12   ar
    20    12    13   ar
    21    13    14    1
    22    13    15   ar
    23    15    16   ar
    24    16    17    1
    25    16    18   ar
    26     5     6    1
    27     6     1    1
    28    18    11   ar
    29    21    25    1
    30    24    26    1
    31     7    10    1
@<TRIPOS>MOLECULE
*****
 30 31 0 0 0
SMALL
GASTEIGER

@<TRIPOS>ATOM
      1 N         139.7768  138.2292  162.0535 N.3     1  UNL1       -0.2698
      2 C         141.0119  137.9715  161.2423 C.3     1  UNL1        0.0723
      3 C         142.3618  138.0232  161.8943 C.3     1  UNL1        0.0191
      4 C         142.4766  138.3327  163.3575 C.3     1  UNL1        0.0224
      5 C         141.2415  138.5905  164.1687 C.3     1  UNL1        0.0878
      6 C         139.8916  138.5387  163.5167 C.3     1  UNL1        0.0919
      7 N         141.3562  138.9000  165.6320 N.am    1  UNL1       -0.3011
      8 C         141.7945  140.2634  166.0781 C.2     1  UNL1        0.2459
      9 O         142.1180  141.3173  165.0609 O.2     1  UNL1       -0.2701
     10 H         141.1439  138.2082  166.2995 H       1  UNL1        0.1497
     11 C         141.9092  140.5729  167.5413 C.ar    1  UNL1        0.0550
     12 C         143.0437  141.4163  168.0428 C.ar    1  UNL1        0.0160
     13 C         143.1584  141.7258  169.5060 C.ar    1  UNL1        0.0587
     14 CL        144.2929  142.5693  170.0076 Cl      1  UNL1       -0.0822
     15 C         142.1386  141.1918  170.4677 C.ar    1  UNL1        0.0228
     16 C         141.0041  140.3484  169.9663 C.ar    1  UNL1        0.0587
     17 CL        139.9843  139.8145  170.9280 Cl      1  UNL1       -0.0822
     18 C         140.8894  140.0389  168.5031 C.ar    1  UNL1        0.0160
     19 C         138.4269  138.1775  161.4014 C.3     1  UNL1        0.0937
     20 C         137.7191  139.4497  161.0405 C.3     1  UNL1        0.1082
     21 N         137.4437  142.3588  163.7260 N.am    1  UNL1       -0.2921
     22 C         137.9925  141.4737  162.6465 C.2     1  UNL1        0.3007
     23 O         139.3635  141.7273  162.0933 O.2     1  UNL1       -0.2528
     24 N         137.1703  140.3348  162.1201 N.am    1  UNL1       -0.2875
     25 H         136.5439  142.1923  164.0890 H       1  UNL1        0.1508
     26 H         136.2704  140.1684  162.4831 H       1  UNL1        0.1510
     27 C         137.6657  144.4073  163.2218 C.3     1  UNL1        0.0197
     28 C         138.2659  143.4976  164.2524 C.3     1  UNL1        0.0583
     29 C         138.8662  142.5878  165.2829 C.3     1  UNL1        0.0197
     30 C         139.0882  144.6364  164.7788 C.3     1  UNL1        0.0197
@<TRIPOS>BOND
     1    27    28    1
     2    28    29    1
     3    28    30    1
     4    28    21    1
     5    21    22   am
     6    22    23    2
     7    22    24   am
     8    24    20    1
     9    20    19    1
    10    19     1    1
    11     1     2    1
    12     2     3    1
    13     3     4    1
    14     4     5    1
    15     5     7    1
    16     7     8   am
    17     8     9    2
    18     8    11    1
    19    11    12   ar
    20    12    13   ar
    21    13    14    1
    22    13    15   ar
    23    15    16   ar
    24    16    17    1
    25    16    18   ar
    26     5     6    1
    27     6     1    1
    28    18    11   ar
    29    21    25    1
    30    24    26    1
    31     7    10    1
@<TRIPOS>MOLECULE
*****
 30 31 0 0 0
SMALL
GASTEIGER

@<TRIPOS>ATOM
      1 N         137.8775  140.2093  162.8105 N.3     1  UNL1       -0.2698
      2 C         137.3621  141.5589  162.4069 C.3     1  UNL1        0.0723
      3 C         137.5361  142.7332  163.3239 C.3     1  UNL1        0.0191
      4 C         138.2254  142.5579  164.6445 C.3     1  UNL1        0.0224
      5 C         138.7407  141.2083  165.0481 C.3     1  UNL1        0.0878
      6 C         138.5668  140.0340  164.1312 C.3     1  UNL1        0.0919
      7 N         139.4301  141.0329  166.3688 N.am    1  UNL1       -0.3011
      8 C         140.9011  141.3006  166.4884 C.2     1  UNL1        0.2459
      9 O         141.6829  141.7437  165.2873 O.2     1  UNL1       -0.2701
     10 H         138.9170  140.7421  167.1571 H       1  UNL1        0.1497
     11 C         141.5905  141.1252  167.8090 C.ar    1  UNL1        0.0550
     12 C         141.8973  139.7480  168.3179 C.ar    1  UNL1        0.0160
     13 C         142.5866  139.5727  169.6385 C.ar    1  UNL1        0.0587
     14 CL        142.8935  138.1953  170.1473 Cl      1  UNL1       -0.0822
     15 C         142.9692  140.7746  170.4502 C.ar    1  UNL1        0.0228
     16 C         142.6624  142.1519  169.9414 C.ar    1  UNL1        0.0587
     17 CL        143.0449  143.3538  170.7532 Cl      1  UNL1       -0.0822
     18 C         141.9730  142.3272  168.6208 C.ar    1  UNL1        0.0160
     19 C         137.7035  139.0350  161.8936 C.3     1  UNL1        0.0937
     20 C         138.8441  138.5809  161.0318 C.3     1  UNL1        0.1082
     21 N         142.3397  137.8050  162.7432 N.am    1  UNL1       -0.2921
     22 C         141.1959  138.5618  162.1359 C.2     1  UNL1        0.3007
     23 O         141.2600  140.0564  162.0253 O.2     1  UNL1       -0.2528
     24 N         139.9879  137.8241  161.6391 N.am    1  UNL1       -0.2875
     25 H         142.2976  136.8241  162.8158 H       1  UNL1        0.1508
     26 H         139.9459  136.8432  161.7117 H       1  UNL1        0.1510
     27 C         144.1263  138.5268  161.8562 C.3     1  UNL1        0.0197
     28 C         143.5476  138.5427  163.2399 C.3     1  UNL1        0.0583
     29 C         142.9689  138.5585  164.6237 C.3     1  UNL1        0.0197
     30 C         144.7556  139.2804  163.7367 C.3     1  UNL1        0.0197
@<TRIPOS>BOND
     1    27    28    1
     2    28    29    1
     3    28    30    1
     4    28    21    1
     5    21    22   am
     6    22    23    2
     7    22    24   am
     8    24    20    1
     9    20    19    1
    10    19     1    1
    11     1     2    1
    12     2     3    1
    13     3     4    1
    14     4     5    1
    15     5     7    1
    16     7     8   am
    17     8     9    2
    18     8    11    1
    19    11    12   ar
    20    12    13   ar
    21    13    14    1
    22    13    15   ar
    23    15    16   ar
    24    16    17    1
    25    16    18   ar
    26     5     6    1
    27     6     1    1
    28    18    11   ar
    29    21    25    1
    30    24    26    1
    31     7    10    1
@<TRIPOS>MOLECULE
*****
 30 31 0 0 0
SMALL
GASTEIGER

@<TRIPOS>ATOM
      1 N         139.1915  142.8421  159.4653 N.3     1  UNL1       -0.2698
      2 C         138.7190  141.8833  158.4130 C.3     1  UNL1        0.0723
      3 C         138.0637  140.5945  158.8125 C.3     1  UNL1        0.0191
      4 C         137.8809  140.2645  160.2643 C.3     1  UNL1        0.0224
      5 C         138.3534  141.2234  161.3165 C.3     1  UNL1        0.0878
      6 C         139.0087  142.5122  160.9171 C.3     1  UNL1        0.0919
      7 N         138.1707  140.8934  162.7684 N.am    1  UNL1       -0.3011
      8 C         139.3625  140.5703  163.6199 C.2     1  UNL1        0.2459
      9 O         140.7371  140.5770  163.0196 O.2     1  UNL1       -0.2701
     10 H         137.2684  140.8890  163.1624 H       1  UNL1        0.1497
     11 C         139.1797  140.2403  165.0718 C.ar    1  UNL1        0.0550
     12 C         139.9667  140.9787  166.1135 C.ar    1  UNL1        0.0160
     13 C         139.7839  140.6487  167.5653 C.ar    1  UNL1        0.0587
     14 CL        140.5710  141.3871  168.6072 Cl      1  UNL1       -0.0822
     15 C         138.8141  139.5804  167.9753 C.ar    1  UNL1        0.0228
     16 C         138.0270  138.8421  166.9335 C.ar    1  UNL1        0.0587
     17 CL        137.0572  137.7737  167.3435 Cl      1  UNL1       -0.0822
     18 C         138.2098  139.1720  165.4818 C.ar    1  UNL1        0.0160
     19 C         139.8468  144.1309  159.0658 C.3     1  UNL1        0.0937
     20 C         140.2756  145.1115  160.1167 C.3     1  UNL1        0.1082
     21 N         143.6067  144.6578  162.2257 N.am    1  UNL1       -0.2921
     22 C         142.1655  144.5779  161.8178 C.2     1  UNL1        0.3007
     23 O         141.1728  143.8844  162.7031 O.2     1  UNL1       -0.2528
     24 N         141.7169  145.1914  160.5246 N.am    1  UNL1       -0.2875
     25 H         144.2582  145.1129  161.6447 H       1  UNL1        0.1508
     26 H         142.3684  145.6466  159.9436 H       1  UNL1        0.1510
     27 C         143.6591  145.2932  164.2489 C.3     1  UNL1        0.0197
     28 C         144.0553  144.0442  163.5189 C.3     1  UNL1        0.0583
     29 C         144.4516  142.7953  162.7888 C.3     1  UNL1        0.0197
     30 C         144.5040  143.4306  164.8120 C.3     1  UNL1        0.0197
@<TRIPOS>BOND
     1    27    28    1
     2    28    29    1
     3    28    30    1
     4    28    21    1
     5    21    22   am
     6    22    23    2
     7    22    24   am
     8    24    20    1
     9    20    19    1
    10    19     1    1
    11     1     2    1
    12     2     3    1
    13     3     4    1
    14     4     5    1
    15     5     7    1
    16     7     8   am
    17     8     9    2
    18     8    11    1
    19    11    12   ar
    20    12    13   ar
    21    13    14    1
    22    13    15   ar
    23    15    16   ar
    24    16    17    1
    25    16    18   ar
    26     5     6    1
    27     6     1    1
    28    18    11   ar
    29    21    25    1
    30    24    26    1
    31     7    10    1
@<TRIPOS>MOLECULE
*****
 30 31 0 0 0
SMALL
GASTEIGER

@<TRIPOS>ATOM
      1 N         144.1737  141.6930  162.4159 N.3     1  UNL1       -0.2698
      2 C         144.4478  140.2742  162.0136 C.3     1  UNL1        0.0723
      3 C         144.2257  139.1605  162.9935 C.3     1  UNL1        0.0191
      4 C         143.7295  139.4654  164.3758 C.3     1  UNL1        0.0224
      5 C         143.4554  140.8842  164.7781 C.3     1  UNL1        0.0878
      6 C         143.6775  141.9980  163.7982 C.3     1  UNL1        0.0919
      7 N         142.9592  141.1892  166.1605 N.am    1  UNL1       -0.3011
      8 C         141.4871  141.1795  166.4481 C.2     1  UNL1        0.2459
      9 O         140.5111  140.8647  165.3534 O.2     1  UNL1       -0.2701
     10 H         143.5998  141.3959  166.8790 H       1  UNL1        0.1497
     11 C         140.9909  141.4845  167.8304 C.ar    1  UNL1        0.0550
     12 C         140.6225  140.3656  168.7590 C.ar    1  UNL1        0.0160
     13 C         140.1264  140.6707  170.1412 C.ar    1  UNL1        0.0587
     14 CL        139.7579  139.5517  171.0699 Cl      1  UNL1       -0.0822
     15 C         139.9986  142.0947  170.5950 C.ar    1  UNL1        0.0228
     16 C         140.3670  143.2136  169.6664 C.ar    1  UNL1        0.0587
     17 CL        140.2393  144.6377  170.1202 Cl      1  UNL1       -0.0822
     18 C         140.8632  142.9086  168.2842 C.ar    1  UNL1        0.0160
     19 C         144.3957  142.8067  161.4360 C.3     1  UNL1        0.0937
     20 C         143.2225  143.4869  160.7951 C.3     1  UNL1        0.1082
     21 N         140.3667  145.0322  163.0771 N.am    1  UNL1       -0.2921
     22 C         141.1755  144.0384  162.2972 C.2     1  UNL1        0.3007
     23 O         140.7462  142.6023  162.2394 O.2     1  UNL1       -0.2528
     24 N         142.4137  144.4807  161.5750 N.am    1  UNL1       -0.2875
     25 H         140.6485  145.9747  163.1150 H       1  UNL1        0.1508
     26 H         142.6955  145.4232  161.6130 H       1  UNL1        0.1510
     27 C         139.9397  144.3381  165.0355 C.3     1  UNL1        0.0197
     28 C         139.1286  144.5899  163.7992 C.3     1  UNL1        0.0583
     29 C         138.3176  144.8418  162.5628 C.3     1  UNL1        0.0197
     30 C         137.8904  144.1477  164.5212 C.3     1  UNL1        0.0197
@<TRIPOS>BOND
     1    27    28    1
     2    28    29    1
     3    28    30    1
     4    28    21    1
     5    21    22   am
     6    22    23    2
     7    22    24   am
     8    24    20    1
     9    20    19    1
    10    19     1    1
    11     1     2    1
    12     2     3    1
    13     3     4    1
    14     4     5    1
    15     5     7    1
    16     7     8   am
    17     8     9    2
    18     8    11    1
    19    11    12   ar
    20    12    13   ar
    21    13    14    1
    22    13    15   ar
    23    15    16   ar
    24    16    17    1
    25    16    18   ar
    26     5     6    1
    27     6     1    1
    28    18    11   ar
    29    21    25    1
    30    24    26    1
    31     7    10    1
@<TRIPOS>MOLECULE
*****
 30 31 0 0 0
SMALL
GASTEIGER

@<TRIPOS>ATOM
      1 N         144.0349  140.8011  160.8017 N.3     1  UNL1       -0.2698
      2 C         143.9248  139.4261  160.2123 C.3     1  UNL1        0.0723
      3 C         143.6454  138.2498  161.1001 C.3     1  UNL1        0.0191
      4 C         143.4760  138.4484  162.5772 C.3     1  UNL1        0.0224
      5 C         143.5862  139.8233  163.1665 C.3     1  UNL1        0.0878
      6 C         143.8656  140.9997  162.2788 C.3     1  UNL1        0.0919
      7 N         143.4168  140.0219  164.6437 N.am    1  UNL1       -0.3011
      8 C         142.0934  140.4639  165.1942 C.2     1  UNL1        0.2459
      9 O         140.9392  140.7072  164.2676 O.2     1  UNL1       -0.2701
     10 H         144.1744  139.8622  165.2519 H       1  UNL1        0.1497
     11 C         141.9241  140.6625  166.6713 C.ar    1  UNL1        0.0550
     12 C         141.3017  141.9240  167.1920 C.ar    1  UNL1        0.0160
     13 C         141.1324  142.1226  168.6691 C.ar    1  UNL1        0.0587
     14 CL        140.5100  143.3842  169.1898 Cl      1  UNL1       -0.0822
     15 C         141.5855  141.0596  169.6255 C.ar    1  UNL1        0.0228
     16 C         142.2078  139.7981  169.1049 C.ar    1  UNL1        0.0587
     17 CL        142.6609  138.7351  170.0614 Cl      1  UNL1       -0.0822
     18 C         142.3771  139.5995  167.6278 C.ar    1  UNL1        0.0160
     19 C         144.3143  141.9774  159.9139 C.3     1  UNL1        0.0937
     20 C         143.2076  142.9224  159.5505 C.3     1  UNL1        0.1082
     21 N         141.4067  145.0882  162.3463 N.am    1  UNL1       -0.2921
     22 C         141.7429  143.9424  161.4385 C.2     1  UNL1        0.3007
     23 O         140.9507  142.6707  161.5109 O.2     1  UNL1       -0.2528
     24 N         142.8714  144.0682  160.4583 N.am    1  UNL1       -0.2875
     25 H         141.9267  145.9228  162.2988 H       1  UNL1        0.1508
     26 H         143.3914  144.9029  160.4108 H       1  UNL1        0.1510
     27 C         141.2188  144.3690  164.3331 C.3     1  UNL1        0.0197
     28 C         140.2783  144.9624  163.3265 C.3     1  UNL1        0.0583
     29 C         139.3377  145.5557  162.3199 C.3     1  UNL1        0.0197
     30 C         139.1497  144.8365  164.3067 C.3     1  UNL1        0.0197
@<TRIPOS>BOND
     1    27    28    1
     2    28    29    1
     3    28    30    1
     4    28    21    1
     5    21    22   am
     6    22    23    2
     7    22    24   am
     8    24    20    1
     9    20    19    1
    10    19     1    1
    11     1     2    1
    12     2     3    1
    13     3     4    1
    14     4     5    1
    15     5     7    1
    16     7     8   am
    17     8     9    2
    18     8    11    1
    19    11    12   ar
    20    12    13   ar
    21    13    14    1
    22    13    15   ar
    23    15    16   ar
    24    16    17    1
    25    16    18   ar
    26     5     6    1
    27     6     1    1
    28    18    11   ar
    29    21    25    1
    30    24    26    1
    31     7    10    1
