@<TRIPOS>MOLECULE
*****
 37 41 0 0 0
SMALL
GASTEIGER

@<TRIPOS>ATOM
      1 C         139.1911  140.6656  164.6126 C.3     1  UNL1        0.0760
      2 C         138.6811  139.7300  166.9821 C.ar    1  UNL1        0.1351
      3 C         138.9585  139.7043  168.4560 C.ar    1  UNL1        0.0366
      4 C         140.0233  140.5885  169.0344 C.ar    1  UNL1        0.0030
      5 C         140.3007  140.5627  170.5083 C.ar    1  UNL1        0.0006
      6 C         141.3655  141.4469  171.0865 C.ar    1  UNL1        0.0067
      7 C         142.1529  142.3568  170.1910 C.ar    1  UNL1        0.0346
      8 BR        143.2177  143.2410  170.7693 Br      1  UNL1       -0.0490
      9 C         141.8755  142.3825  168.7171 C.ar    1  UNL1        0.0067
     10 C         140.8107  141.4984  168.1388 C.ar    1  UNL1        0.0004
     11 C         140.5333  141.5241  166.6648 C.ar    1  UNL1       -0.0009
     12 C         139.4685  140.6399  166.0866 C.ar    1  UNL1        0.0181
     13 C         137.6818  137.3612  166.6077 C.3     1  UNL1        0.2525
     14 O         137.6163  138.8458  166.4038 O.3     1  UNL1       -0.4717
     15 C         138.7937  141.9495  163.9465 C.ar    1  UNL1       -0.0157
     16 C         137.9713  142.9582  164.6924 C.ar    1  UNL1       -0.0039
     17 C         137.5739  144.2421  164.0264 C.ar    1  UNL1       -0.0003
     18 C         137.9989  144.5174  162.6144 C.ar    1  UNL1       -0.0000
     19 C         138.8213  143.5087  161.8685 C.ar    1  UNL1       -0.0003
     20 C         139.2187  142.2248  162.5345 C.ar    1  UNL1       -0.0039
     21 C         139.3111  139.4075  163.8048 C.3     1  UNL1        0.1158
     22 O         137.8360  139.4402  163.5347 O.3     1  UNL1       -0.3820
     23 H         137.4756  138.5419  163.5983 H       1  UNL1        0.2107
     24 C         140.7862  139.3747  164.0749 C.ar    1  UNL1        0.0026
     25 C         141.3610  138.3198  164.9732 C.ar    1  UNL1        0.0011
     26 C         142.8360  138.2871  165.2433 C.ar    1  UNL1        0.0372
     27 C         143.7364  139.3092  164.6151 C.ar    1  UNL1        0.1454
     28 O         145.2184  139.5265  164.6961 O.2     1  UNL1       -0.4504
     29 C         145.5595  140.7157  163.8479 C.ar    1  UNL1        0.1796
     30 C         144.2884  141.2333  163.2427 C.ar    1  UNL1        0.0437
     31 C         143.1617  140.3641  163.7169 C.ar    1  UNL1        0.0375
     32 C         141.6865  140.3969  163.4468 C.ar    1  UNL1        0.0011
     33 C         139.4311  138.1493  162.9970 C.3     1  UNL1        0.0491
     34 C         138.7392  138.0408  161.6705 C.3     1  UNL1        0.0750
     35 N         138.9837  139.0736  160.6104 N.3     1  UNL1       -0.2702
     36 C         140.3767  139.3221  160.1125 C.3     1  UNL1        0.0897
     37 C         137.8352  139.8578  160.0483 C.3     1  UNL1        0.0897
@<TRIPOS>BOND
     1    13    14    1
     2    14     2    1
     3     2     3   ar
     4     3     4   ar
     5     4     5   ar
     6     5     6   ar
     7     6     7   ar
     8     7     8    1
     9     7     9   ar
    10     9    10   ar
    11    10    11   ar
    12    11    12   ar
    13     1    12    1
    14     1    15    1
    15    15    16   ar
    16    16    17   ar
    17    17    18   ar
    18    18    19   ar
    19    19    20   ar
    20     1    21    1
    21    21    22    1
    22    21    33    1
    23    33    34    1
    24    34    35    1
    25    35    36    1
    26    35    37    1
    27    21    24    1
    28    24    25   ar
    29    25    26   ar
    30    26    27   ar
    31    27    28   ar
    32    28    29   ar
    33    29    30   ar
    34    30    31   ar
    35    31    32   ar
    36    12     2   ar
    37    20    15   ar
    38    32    24   ar
    39    10     4   ar
    40    31    27   ar
    41    22    23    1
@<TRIPOS>MOLECULE
*****
 37 41 0 0 0
SMALL
GASTEIGER

@<TRIPOS>ATOM
      1 C         140.7046  140.3986  165.5525 C.3     1  UNL1        0.0760
      2 C         142.9768  139.8398  164.4233 C.ar    1  UNL1        0.1351
      3 C         143.8071  139.6798  163.1843 C.ar    1  UNL1        0.0366
      4 C         143.1956  139.9187  161.8356 C.ar    1  UNL1        0.0030
      5 C         144.0259  139.7587  160.5967 C.ar    1  UNL1        0.0006
      6 C         143.4143  139.9976  159.2480 C.ar    1  UNL1        0.0067
      7 C         141.9725  140.3964  159.1383 C.ar    1  UNL1        0.0346
      8 BR        141.3610  140.6353  157.7895 Br      1  UNL1       -0.0490
      9 C         141.1422  140.5564  160.3772 C.ar    1  UNL1        0.0067
     10 C         141.7537  140.3175  161.7258 C.ar    1  UNL1        0.0004
     11 C         140.9234  140.4775  162.9648 C.ar    1  UNL1       -0.0009
     12 C         141.5349  140.2386  164.3135 C.ar    1  UNL1        0.0181
     13 C         143.6998  138.2045  166.3083 C.3     1  UNL1        0.2525
     14 O         143.5883  139.6009  165.7720 O.3     1  UNL1       -0.4717
     15 C         139.6662  139.3725  165.8971 C.ar    1  UNL1       -0.0157
     16 C         139.5722  138.1042  165.1018 C.ar    1  UNL1       -0.0039
     17 C         138.5338  137.0781  165.4464 C.ar    1  UNL1       -0.0003
     18 C         137.5893  137.3203  166.5862 C.ar    1  UNL1       -0.0000
     19 C         137.6832  138.5887  167.3815 C.ar    1  UNL1       -0.0003
     20 C         138.7216  139.6148  167.0370 C.ar    1  UNL1       -0.0039
     21 C         140.9128  141.5846  166.4469 C.3     1  UNL1        0.1158
     22 O         141.5667  140.7006  167.4671 O.3     1  UNL1       -0.3820
     23 H         141.2702  140.9566  168.3544 H       1  UNL1        0.2107
     24 C         140.2589  142.4687  165.4267 C.ar    1  UNL1        0.0026
     25 C         138.7916  142.3325  165.1464 C.ar    1  UNL1        0.0011
     26 C         138.1377  143.2166  164.1262 C.ar    1  UNL1        0.0372
     27 C         138.9511  144.2369  163.3863 C.ar    1  UNL1        0.1454
     28 O         138.5852  145.2405  162.3333 O.2     1  UNL1       -0.4504
     29 C         139.8263  145.9969  161.9628 C.ar    1  UNL1        0.1796
     30 C         140.9593  145.4609  162.7868 C.ar    1  UNL1        0.0437
     31 C         140.4183  144.3731  163.6666 C.ar    1  UNL1        0.0375
     32 C         141.0723  143.4890  164.6868 C.ar    1  UNL1        0.0011
     33 C         141.1210  142.7707  167.3413 C.3     1  UNL1        0.0491
     34 C         140.5018  142.7978  168.7073 C.3     1  UNL1        0.0750
     35 N         141.2995  142.3632  169.9010 N.3     1  UNL1       -0.2702
     36 C         142.6931  142.8809  170.1007 C.3     1  UNL1        0.0897
     37 C         140.7036  141.4109  170.8950 C.3     1  UNL1        0.0897
@<TRIPOS>BOND
     1    13    14    1
     2    14     2    1
     3     2     3   ar
     4     3     4   ar
     5     4     5   ar
     6     5     6   ar
     7     6     7   ar
     8     7     8    1
     9     7     9   ar
    10     9    10   ar
    11    10    11   ar
    12    11    12   ar
    13     1    12    1
    14     1    15    1
    15    15    16   ar
    16    16    17   ar
    17    17    18   ar
    18    18    19   ar
    19    19    20   ar
    20     1    21    1
    21    21    22    1
    22    21    33    1
    23    33    34    1
    24    34    35    1
    25    35    36    1
    26    35    37    1
    27    21    24    1
    28    24    25   ar
    29    25    26   ar
    30    26    27   ar
    31    27    28   ar
    32    28    29   ar
    33    29    30   ar
    34    30    31   ar
    35    31    32   ar
    36    12     2   ar
    37    20    15   ar
    38    32    24   ar
    39    10     4   ar
    40    31    27   ar
    41    22    23    1
@<TRIPOS>MOLECULE
*****
 37 41 0 0 0
SMALL
GASTEIGER

@<TRIPOS>ATOM
      1 C         140.8780  140.2356  164.7496 C.3     1  UNL1        0.0760
      2 C         142.5566  139.4594  162.9248 C.ar    1  UNL1        0.1351
      3 C         142.8845  139.2121  161.4821 C.ar    1  UNL1        0.0366
      4 C         141.8619  139.4938  160.4215 C.ar    1  UNL1        0.0030
      5 C         142.1899  139.2465  158.9789 C.ar    1  UNL1        0.0006
      6 C         141.1672  139.5282  157.9183 C.ar    1  UNL1        0.0067
      7 C         139.8166  140.0571  158.3004 C.ar    1  UNL1        0.0346
      8 BR        138.7939  140.3388  157.2398 Br      1  UNL1       -0.0490
      9 C         139.4886  140.3044  159.7430 C.ar    1  UNL1        0.0067
     10 C         140.5112  140.0227  160.8036 C.ar    1  UNL1        0.0004
     11 C         140.1833  140.2700  162.2463 C.ar    1  UNL1       -0.0009
     12 C         141.2059  139.9883  163.3069 C.ar    1  UNL1        0.0181
     13 C         144.9013  139.8858  163.9594 C.3     1  UNL1        0.2525
     14 O         143.5792  139.1777  163.9854 O.3     1  UNL1       -0.4717
     15 C         139.8295  139.4086  165.4328 C.ar    1  UNL1       -0.0157
     16 C         139.4511  138.0681  164.8761 C.ar    1  UNL1       -0.0039
     17 C         138.4026  137.2411  165.5592 C.ar    1  UNL1       -0.0003
     18 C         137.7325  137.7545  166.7991 C.ar    1  UNL1       -0.0000
     19 C         138.1109  139.0951  167.3559 C.ar    1  UNL1       -0.0003
     20 C         139.1594  139.9221  166.6727 C.ar    1  UNL1       -0.0039
     21 C         141.5985  141.3098  165.5091 C.3     1  UNL1        0.1158
     22 O         142.3361  140.2629  166.2900 O.3     1  UNL1       -0.3820
     23 H         142.3912  140.5324  167.2202 H       1  UNL1        0.2107
     24 C         140.8608  142.3567  164.7281 C.ar    1  UNL1        0.0026
     25 C         139.4370  142.6827  165.0694 C.ar    1  UNL1        0.0011
     26 C         138.6994  143.7296  164.2884 C.ar    1  UNL1        0.0372
     27 C         139.3855  144.4505  163.1662 C.ar    1  UNL1        0.1454
     28 O         138.9173  145.5219  162.2266 O.2     1  UNL1       -0.4504
     29 C         140.0517  145.8580  161.3046 C.ar    1  UNL1        0.1796
     30 C         141.2211  144.9944  161.6743 C.ar    1  UNL1        0.0437
     31 C         140.8093  144.1245  162.8248 C.ar    1  UNL1        0.0375
     32 C         141.5470  143.0776  163.6058 C.ar    1  UNL1        0.0011
     33 C         142.3190  142.3840  166.2685 C.3     1  UNL1        0.0491
     34 C         142.7027  142.1609  167.7013 C.3     1  UNL1        0.0750
     35 N         141.6388  141.9889  168.7447 N.3     1  UNL1       -0.2702
     36 C         140.4930  142.9545  168.8137 C.3     1  UNL1        0.0897
     37 C         141.7207  140.8514  169.7190 C.3     1  UNL1        0.0897
@<TRIPOS>BOND
     1    13    14    1
     2    14     2    1
     3     2     3   ar
     4     3     4   ar
     5     4     5   ar
     6     5     6   ar
     7     6     7   ar
     8     7     8    1
     9     7     9   ar
    10     9    10   ar
    11    10    11   ar
    12    11    12   ar
    13     1    12    1
    14     1    15    1
    15    15    16   ar
    16    16    17   ar
    17    17    18   ar
    18    18    19   ar
    19    19    20   ar
    20     1    21    1
    21    21    22    1
    22    21    33    1
    23    33    34    1
    24    34    35    1
    25    35    36    1
    26    35    37    1
    27    21    24    1
    28    24    25   ar
    29    25    26   ar
    30    26    27   ar
    31    27    28   ar
    32    28    29   ar
    33    29    30   ar
    34    30    31   ar
    35    31    32   ar
    36    12     2   ar
    37    20    15   ar
    38    32    24   ar
    39    10     4   ar
    40    31    27   ar
    41    22    23    1
@<TRIPOS>MOLECULE
*****
 37 41 0 0 0
SMALL
GASTEIGER

@<TRIPOS>ATOM
      1 C         141.3280  141.1177  162.8922 C.3     1  UNL1        0.0760
      2 C         142.5140  142.7673  164.5116 C.ar    1  UNL1        0.1351
      3 C         143.0444  143.0919  165.8765 C.ar    1  UNL1        0.0366
      4 C         142.9194  142.0915  166.9873 C.ar    1  UNL1        0.0030
      5 C         143.4499  142.4161  168.3522 C.ar    1  UNL1        0.0006
      6 C         143.3248  141.4157  169.4629 C.ar    1  UNL1        0.0067
      7 C         142.6693  140.0907  169.2085 C.ar    1  UNL1        0.0346
      8 BR        142.5442  139.0903  170.3192 Br      1  UNL1       -0.0490
      9 C         142.1388  139.7661  167.8435 C.ar    1  UNL1        0.0067
     10 C         142.2639  140.7665  166.7329 C.ar    1  UNL1        0.0004
     11 C         141.7334  140.4419  165.3679 C.ar    1  UNL1       -0.0009
     12 C         141.8584  141.4423  164.2572 C.ar    1  UNL1        0.0181
     13 C         143.9197  143.8730  162.6271 C.3     1  UNL1        0.2525
     14 O         142.6390  143.7677  163.4008 O.3     1  UNL1       -0.4717
     15 C         142.2235  140.4803  161.8715 C.ar    1  UNL1       -0.0157
     16 C         142.1005  140.8583  160.4252 C.ar    1  UNL1       -0.0039
     17 C         142.9961  140.2209  159.4046 C.ar    1  UNL1       -0.0003
     18 C         144.0147  139.2055  159.8303 C.ar    1  UNL1       -0.0000
     19 C         144.1378  138.8275  161.2767 C.ar    1  UNL1       -0.0003
     20 C         143.2422  139.4649  162.2973 C.ar    1  UNL1       -0.0039
     21 C         139.9020  141.4305  162.5478 C.3     1  UNL1        0.1158
     22 O         140.3536  142.6276  161.7649 O.3     1  UNL1       -0.3820
     23 H         139.7500  143.3686  161.9303 H       1  UNL1        0.2107
     24 C         139.4503  140.2334  163.3307 C.ar    1  UNL1        0.0026
     25 C         139.6356  138.8555  162.7676 C.ar    1  UNL1        0.0011
     26 C         139.1839  137.6584  163.5505 C.ar    1  UNL1        0.0372
     27 C         138.5470  137.8392  164.8965 C.ar    1  UNL1        0.1454
     28 O         138.0065  136.8554  165.8915 O.2     1  UNL1       -0.4504
     29 C         137.4872  137.6252  167.0694 C.ar    1  UNL1        0.1796
     30 C         137.7067  139.0849  166.8025 C.ar    1  UNL1        0.0437
     31 C         138.3617  139.2171  165.4596 C.ar    1  UNL1        0.0375
     32 C         138.8134  140.4142  164.6767 C.ar    1  UNL1        0.0011
     33 C         138.4760  141.7433  162.2034 C.3     1  UNL1        0.0491
     34 C         138.0067  143.1677  162.1737 C.3     1  UNL1        0.0750
     35 N         138.3822  144.1044  163.2835 N.3     1  UNL1       -0.2702
     36 C         139.3742  145.2018  163.0353 C.3     1  UNL1        0.0897
     37 C         137.7657  143.9436  164.6415 C.3     1  UNL1        0.0897
@<TRIPOS>BOND
     1    13    14    1
     2    14     2    1
     3     2     3   ar
     4     3     4   ar
     5     4     5   ar
     6     5     6   ar
     7     6     7   ar
     8     7     8    1
     9     7     9   ar
    10     9    10   ar
    11    10    11   ar
    12    11    12   ar
    13     1    12    1
    14     1    15    1
    15    15    16   ar
    16    16    17   ar
    17    17    18   ar
    18    18    19   ar
    19    19    20   ar
    20     1    21    1
    21    21    22    1
    22    21    33    1
    23    33    34    1
    24    34    35    1
    25    35    36    1
    26    35    37    1
    27    21    24    1
    28    24    25   ar
    29    25    26   ar
    30    26    27   ar
    31    27    28   ar
    32    28    29   ar
    33    29    30   ar
    34    30    31   ar
    35    31    32   ar
    36    12     2   ar
    37    20    15   ar
    38    32    24   ar
    39    10     4   ar
    40    31    27   ar
    41    22    23    1
@<TRIPOS>MOLECULE
*****
 37 41 0 0 0
SMALL
GASTEIGER

@<TRIPOS>ATOM
      1 C         141.4422  140.5978  162.6939 C.3     1  UNL1        0.0760
      2 C         141.8132  139.1413  164.8131 C.ar    1  UNL1        0.1351
      3 C         141.8325  139.0018  166.3065 C.ar    1  UNL1        0.0366
      4 C         141.5002  140.1795  167.1741 C.ar    1  UNL1        0.0030
      5 C         141.5195  140.0401  168.6674 C.ar    1  UNL1        0.0006
      6 C         141.1872  141.2177  169.5350 C.ar    1  UNL1        0.0067
      7 C         140.8355  142.5348  168.9092 C.ar    1  UNL1        0.0346
      8 BR        140.5032  143.7125  169.7768 Br      1  UNL1       -0.0490
      9 C         140.8162  142.6742  167.4159 C.ar    1  UNL1        0.0067
     10 C         141.1485  141.4966  166.5483 C.ar    1  UNL1        0.0004
     11 C         141.1292  141.6360  165.0549 C.ar    1  UNL1       -0.0009
     12 C         141.4615  140.4584  164.1873 C.ar    1  UNL1        0.0181
     13 C         141.0730  136.9870  163.5637 C.3     1  UNL1        0.2525
     14 O         142.1455  137.9636  163.9455 O.3     1  UNL1       -0.4717
     15 C         140.1949  140.2733  161.9264 C.ar    1  UNL1       -0.0157
     16 C         138.9019  140.9480  162.2767 C.ar    1  UNL1       -0.0039
     17 C         137.6546  140.6235  161.5093 C.ar    1  UNL1       -0.0003
     18 C         137.7003  139.6243  160.3915 C.ar    1  UNL1       -0.0000
     19 C         138.9934  138.9495  160.0412 C.ar    1  UNL1       -0.0003
     20 C         140.2407  139.2740  160.8086 C.ar    1  UNL1       -0.0039
     21 C         142.6701  141.0617  161.9680 C.3     1  UNL1        0.1158
     22 O         143.4235  139.8705  162.4813 O.3     1  UNL1       -0.3820
     23 H         144.3182  140.1411  162.7408 H       1  UNL1        0.2107
     24 C         141.9167  142.2528  161.4547 C.ar    1  UNL1        0.0026
     25 C         141.6191  142.3778  159.9898 C.ar    1  UNL1        0.0011
     26 C         140.8657  143.5690  159.4765 C.ar    1  UNL1        0.0372
     27 C         140.4098  144.6352  160.4281 C.ar    1  UNL1        0.1454
     28 O         139.6539  145.9133  160.2161 O.2     1  UNL1       -0.4504
     29 C         139.4842  146.5782  161.5499 C.ar    1  UNL1        0.1796
     30 C         140.1354  145.7110  162.5863 C.ar    1  UNL1        0.0437
     31 C         140.7074  144.5102  161.8929 C.ar    1  UNL1        0.0375
     32 C         141.4608  143.3190  162.4063 C.ar    1  UNL1        0.0011
     33 C         143.8980  141.5255  161.2421 C.3     1  UNL1        0.0491
     34 C         144.9092  142.3792  161.9483 C.3     1  UNL1        0.0750
     35 N         145.0441  142.3030  163.4403 N.3     1  UNL1       -0.2702
     36 C         144.3788  143.3307  164.3070 C.3     1  UNL1        0.0897
     37 C         145.8443  141.1990  164.0656 C.3     1  UNL1        0.0897
@<TRIPOS>BOND
     1    13    14    1
     2    14     2    1
     3     2     3   ar
     4     3     4   ar
     5     4     5   ar
     6     5     6   ar
     7     6     7   ar
     8     7     8    1
     9     7     9   ar
    10     9    10   ar
    11    10    11   ar
    12    11    12   ar
    13     1    12    1
    14     1    15    1
    15    15    16   ar
    16    16    17   ar
    17    17    18   ar
    18    18    19   ar
    19    19    20   ar
    20     1    21    1
    21    21    22    1
    22    21    33    1
    23    33    34    1
    24    34    35    1
    25    35    36    1
    26    35    37    1
    27    21    24    1
    28    24    25   ar
    29    25    26   ar
    30    26    27   ar
    31    27    28   ar
    32    28    29   ar
    33    29    30   ar
    34    30    31   ar
    35    31    32   ar
    36    12     2   ar
    37    20    15   ar
    38    32    24   ar
    39    10     4   ar
    40    31    27   ar
    41    22    23    1
@<TRIPOS>MOLECULE
*****
 37 41 0 0 0
SMALL
GASTEIGER

@<TRIPOS>ATOM
      1 C         139.1917  140.0893  162.3261 C.3     1  UNL1        0.0760
      2 C         141.4685  139.0563  161.6196 C.ar    1  UNL1        0.1351
      3 C         142.3292  138.3933  160.5854 C.ar    1  UNL1        0.0366
      4 C         141.7736  138.1003  159.2232 C.ar    1  UNL1        0.0030
      5 C         142.6343  137.4373  158.1889 C.ar    1  UNL1        0.0006
      6 C         142.0787  137.1443  156.8268 C.ar    1  UNL1        0.0067
      7 C         140.6626  137.5143  156.4989 C.ar    1  UNL1        0.0346
      8 BR        140.1070  137.2213  155.1366 Br      1  UNL1       -0.0490
      9 C         139.8019  138.1773  157.5331 C.ar    1  UNL1        0.0067
     10 C         140.3574  138.4703  158.8953 C.ar    1  UNL1        0.0004
     11 C         139.4968  139.1333  159.9296 C.ar    1  UNL1       -0.0009
     12 C         140.0523  139.4263  161.2917 C.ar    1  UNL1        0.0181
     13 C         143.5064  139.3203  163.2095 C.3     1  UNL1        0.2525
     14 O         142.0240  139.3494  162.9819 O.3     1  UNL1       -0.4717
     15 C         138.8867  139.3822  163.6133 C.ar    1  UNL1       -0.0157
     16 C         138.4002  140.1605  164.7996 C.ar    1  UNL1       -0.0039
     17 C         138.0952  139.4534  166.0868 C.ar    1  UNL1       -0.0003
     18 C         138.2768  137.9679  166.1877 C.ar    1  UNL1       -0.0000
     19 C         138.7634  137.1894  165.0013 C.ar    1  UNL1       -0.0003
     20 C         139.0683  137.8966  163.7141 C.ar    1  UNL1       -0.0039
     21 C         138.6360  141.4594  162.0731 C.3     1  UNL1        0.1158
     22 O         137.2533  140.8837  161.9918 O.3     1  UNL1       -0.3820
     23 H         136.7680  141.3090  161.2676 H       1  UNL1        0.2107
     24 C         140.0187  142.0352  162.1544 C.ar    1  UNL1        0.0026
     25 C         140.7178  142.4866  160.9063 C.ar    1  UNL1        0.0011
     26 C         142.1004  143.0623  160.9876 C.ar    1  UNL1        0.0372
     27 C         142.7841  143.1868  162.3170 C.ar    1  UNL1        0.1454
     28 O         144.1347  143.7107  162.7059 O.2     1  UNL1       -0.4504
     29 C         144.2704  143.5832  164.1942 C.ar    1  UNL1        0.1796
     30 C         143.0037  142.9804  164.7252 C.ar    1  UNL1        0.0437
     31 C         142.0851  142.7354  163.5650 C.ar    1  UNL1        0.0375
     32 C         140.7023  142.1596  163.4838 C.ar    1  UNL1        0.0011
     33 C         138.0803  142.8295  161.8202 C.3     1  UNL1        0.0491
     34 C         137.6538  143.6903  162.9722 C.3     1  UNL1        0.0750
     35 N         138.5903  144.7251  163.5223 N.3     1  UNL1       -0.2702
     36 C         139.3787  145.5951  162.5887 C.3     1  UNL1        0.0897
     37 C         138.7382  144.8898  165.0058 C.3     1  UNL1        0.0897
@<TRIPOS>BOND
     1    13    14    1
     2    14     2    1
     3     2     3   ar
     4     3     4   ar
     5     4     5   ar
     6     5     6   ar
     7     6     7   ar
     8     7     8    1
     9     7     9   ar
    10     9    10   ar
    11    10    11   ar
    12    11    12   ar
    13     1    12    1
    14     1    15    1
    15    15    16   ar
    16    16    17   ar
    17    17    18   ar
    18    18    19   ar
    19    19    20   ar
    20     1    21    1
    21    21    22    1
    22    21    33    1
    23    33    34    1
    24    34    35    1
    25    35    36    1
    26    35    37    1
    27    21    24    1
    28    24    25   ar
    29    25    26   ar
    30    26    27   ar
    31    27    28   ar
    32    28    29   ar
    33    29    30   ar
    34    30    31   ar
    35    31    32   ar
    36    12     2   ar
    37    20    15   ar
    38    32    24   ar
    39    10     4   ar
    40    31    27   ar
    41    22    23    1
@<TRIPOS>MOLECULE
*****
 37 41 0 0 0
SMALL
GASTEIGER

@<TRIPOS>ATOM
      1 C         140.5765  140.1895  163.7513 C.3     1  UNL1        0.0760
      2 C         141.6029  139.2186  161.5709 C.ar    1  UNL1        0.1351
      3 C         141.5338  138.9975  160.0889 C.ar    1  UNL1        0.0366
      4 C         140.3691  139.5262  159.3052 C.ar    1  UNL1        0.0030
      5 C         140.3001  139.3051  157.8232 C.ar    1  UNL1        0.0006
      6 C         139.1355  139.8337  157.0396 C.ar    1  UNL1        0.0067
      7 C         138.0400  140.5836  157.7379 C.ar    1  UNL1        0.0346
      8 BR        136.8753  141.1123  156.9542 Br      1  UNL1       -0.0490
      9 C         138.1090  140.8047  159.2199 C.ar    1  UNL1        0.0067
     10 C         139.2736  140.2760  160.0035 C.ar    1  UNL1        0.0004
     11 C         139.3428  140.4971  161.4856 C.ar    1  UNL1       -0.0009
     12 C         140.5074  139.9684  162.2692 C.ar    1  UNL1        0.0181
     13 C         143.8760  137.9630  161.6525 C.3     1  UNL1        0.2525
     14 O         142.7675  138.6899  162.3546 O.3     1  UNL1       -0.4717
     15 C         139.6647  139.4274  164.6666 C.ar    1  UNL1       -0.0157
     16 C         139.4569  137.9558  164.4635 C.ar    1  UNL1       -0.0039
     17 C         138.5451  137.1937  165.3788 C.ar    1  UNL1       -0.0003
     18 C         137.8410  137.9032  166.4972 C.ar    1  UNL1       -0.0000
     19 C         138.0488  139.3749  166.7004 C.ar    1  UNL1       -0.0003
     20 C         138.9606  140.1370  165.7851 C.ar    1  UNL1       -0.0039
     21 C         141.5574  141.1726  164.3180 C.3     1  UNL1        0.1158
     22 O         142.1841  140.0788  165.1309 O.3     1  UNL1       -0.3820
     23 H         142.3924  140.4135  166.0172 H       1  UNL1        0.2107
     24 C         140.9308  142.2664  163.5050 C.ar    1  UNL1        0.0026
     25 C         139.6165  142.8546  163.9256 C.ar    1  UNL1        0.0011
     26 C         138.9899  143.9484  163.1126 C.ar    1  UNL1        0.0372
     27 C         139.6775  144.4540  161.8791 C.ar    1  UNL1        0.1454
     28 O         139.3048  145.5140  160.8854 O.2     1  UNL1       -0.4504
     29 C         140.3887  145.5810  159.8507 C.ar    1  UNL1        0.1796
     30 C         141.4313  144.5624  160.2050 C.ar    1  UNL1        0.0437
     31 C         140.9917  143.8659  161.4586 C.ar    1  UNL1        0.0375
     32 C         141.6184  142.7721  162.2715 C.ar    1  UNL1        0.0011
     33 C         142.5384  142.1558  164.8846 C.3     1  UNL1        0.0491
     34 C         143.9233  141.7087  165.2481 C.3     1  UNL1        0.0750
     35 N         144.8192  141.1161  164.2010 N.3     1  UNL1       -0.2702
     36 C         145.3628  139.7292  164.3767 C.3     1  UNL1        0.0897
     37 C         145.1713  141.9105  162.9784 C.3     1  UNL1        0.0897
@<TRIPOS>BOND
     1    13    14    1
     2    14     2    1
     3     2     3   ar
     4     3     4   ar
     5     4     5   ar
     6     5     6   ar
     7     6     7   ar
     8     7     8    1
     9     7     9   ar
    10     9    10   ar
    11    10    11   ar
    12    11    12   ar
    13     1    12    1
    14     1    15    1
    15    15    16   ar
    16    16    17   ar
    17    17    18   ar
    18    18    19   ar
    19    19    20   ar
    20     1    21    1
    21    21    22    1
    22    21    33    1
    23    33    34    1
    24    34    35    1
    25    35    36    1
    26    35    37    1
    27    21    24    1
    28    24    25   ar
    29    25    26   ar
    30    26    27   ar
    31    27    28   ar
    32    28    29   ar
    33    29    30   ar
    34    30    31   ar
    35    31    32   ar
    36    12     2   ar
    37    20    15   ar
    38    32    24   ar
    39    10     4   ar
    40    31    27   ar
    41    22    23    1
@<TRIPOS>MOLECULE
*****
 37 41 0 0 0
SMALL
GASTEIGER

@<TRIPOS>ATOM
      1 C         142.3815  143.0386  160.8283 C.3     1  UNL1        0.0760
      2 C         142.9038  143.0870  158.2837 C.ar    1  UNL1        0.1351
      3 C         143.1307  142.3624  156.9901 C.ar    1  UNL1        0.0366
      4 C         143.0623  140.8645  156.9475 C.ar    1  UNL1        0.0030
      5 C         143.2892  140.1398  155.6540 C.ar    1  UNL1        0.0006
      6 C         143.2207  138.6420  155.6114 C.ar    1  UNL1        0.0067
      7 C         142.9254  137.8689  156.8624 C.ar    1  UNL1        0.0346
      8 BR        142.8570  136.3710  156.8198 Br      1  UNL1       -0.0490
      9 C         142.6985  138.5935  158.1560 C.ar    1  UNL1        0.0067
     10 C         142.7669  140.0913  158.1985 C.ar    1  UNL1        0.0004
     11 C         142.5400  140.8161  159.4921 C.ar    1  UNL1       -0.0009
     12 C         142.6084  142.3139  159.5347 C.ar    1  UNL1        0.0181
     13 C         142.0442  145.4025  157.4776 C.3     1  UNL1        0.2525
     14 O         142.9722  144.5849  158.3263 O.3     1  UNL1       -0.4717
     15 C         143.2756  142.7737  162.0032 C.ar    1  UNL1       -0.0157
     16 C         142.7888  143.0532  163.3942 C.ar    1  UNL1       -0.0039
     17 C         143.6830  142.7883  164.5691 C.ar    1  UNL1       -0.0003
     18 C         145.0639  142.2440  164.3530 C.ar    1  UNL1       -0.0000
     19 C         145.5507  141.9645  162.9619 C.ar    1  UNL1       -0.0003
     20 C         144.6566  142.2294  161.7870 C.ar    1  UNL1       -0.0039
     21 C         141.2605  144.0281  160.9470 C.3     1  UNL1        0.1158
     22 O         142.2563  145.1333  161.1390 O.3     1  UNL1       -0.3820
     23 H         141.9393  145.7381  161.8279 H       1  UNL1        0.2107
     24 C         140.2646  142.9230  160.7549 C.ar    1  UNL1        0.0026
     25 C         139.4059  142.8925  159.5253 C.ar    1  UNL1        0.0011
     26 C         138.4101  141.7874  159.3333 C.ar    1  UNL1        0.0372
     27 C         138.2729  140.7127  160.3707 C.ar    1  UNL1        0.1454
     28 O         137.3854  139.5064  160.4550 O.2     1  UNL1       -0.4504
     29 C         137.6956  138.7913  161.7365 C.ar    1  UNL1        0.1796
     30 C         138.7748  139.5557  162.4444 C.ar    1  UNL1        0.0437
     31 C         139.1315  140.7432  161.6002 C.ar    1  UNL1        0.0375
     32 C         140.1275  141.8483  161.7923 C.ar    1  UNL1        0.0011
     33 C         140.1395  145.0177  161.0656 C.3     1  UNL1        0.0491
     34 C         139.8255  145.6396  162.3940 C.3     1  UNL1        0.0750
     35 N         139.0508  144.8665  163.4198 N.3     1  UNL1       -0.2702
     36 C         139.6231  144.6562  164.7903 C.3     1  UNL1        0.0897
     37 C         137.7039  144.3037  163.0750 C.3     1  UNL1        0.0897
@<TRIPOS>BOND
     1    13    14    1
     2    14     2    1
     3     2     3   ar
     4     3     4   ar
     5     4     5   ar
     6     5     6   ar
     7     6     7   ar
     8     7     8    1
     9     7     9   ar
    10     9    10   ar
    11    10    11   ar
    12    11    12   ar
    13     1    12    1
    14     1    15    1
    15    15    16   ar
    16    16    17   ar
    17    17    18   ar
    18    18    19   ar
    19    19    20   ar
    20     1    21    1
    21    21    22    1
    22    21    33    1
    23    33    34    1
    24    34    35    1
    25    35    36    1
    26    35    37    1
    27    21    24    1
    28    24    25   ar
    29    25    26   ar
    30    26    27   ar
    31    27    28   ar
    32    28    29   ar
    33    29    30   ar
    34    30    31   ar
    35    31    32   ar
    36    12     2   ar
    37    20    15   ar
    38    32    24   ar
    39    10     4   ar
    40    31    27   ar
    41    22    23    1
@<TRIPOS>MOLECULE
*****
 37 41 0 0 0
SMALL
GASTEIGER

@<TRIPOS>ATOM
      1 C         140.4201  140.3639  163.1530 C.3     1  UNL1        0.0760
      2 C         139.0970  139.1671  165.0417 C.ar    1  UNL1        0.1351
      3 C         138.7023  139.0610  166.4849 C.ar    1  UNL1        0.0366
      4 C         139.2360  140.0456  167.4828 C.ar    1  UNL1        0.0030
      5 C         138.8413  139.9395  168.9260 C.ar    1  UNL1        0.0006
      6 C         139.3750  140.9241  169.9238 C.ar    1  UNL1        0.0067
      7 C         140.3035  142.0148  169.4784 C.ar    1  UNL1        0.0346
      8 BR        140.8372  142.9995  170.4763 Br      1  UNL1       -0.0490
      9 C         140.6982  142.1210  168.0352 C.ar    1  UNL1        0.0067
     10 C         140.1644  141.1363  167.0374 C.ar    1  UNL1        0.0004
     11 C         140.5591  141.2424  165.5941 C.ar    1  UNL1       -0.0009
     12 C         140.0254  140.2578  164.5963 C.ar    1  UNL1        0.0181
     13 C         139.2850  136.8890  163.8067 C.3     1  UNL1        0.2525
     14 O         138.5633  138.1825  164.0438 O.3     1  UNL1       -0.4717
     15 C         141.5575  139.5413  162.6241 C.ar    1  UNL1       -0.0157
     16 C         142.8994  139.5999  163.2917 C.ar    1  UNL1       -0.0039
     17 C         144.0368  138.7772  162.7628 C.ar    1  UNL1       -0.0003
     18 C         143.8322  137.8961  161.5663 C.ar    1  UNL1       -0.0000
     19 C         142.4902  137.8375  160.8986 C.ar    1  UNL1       -0.0003
     20 C         141.3528  138.6601  161.4275 C.ar    1  UNL1       -0.0039
     21 C         139.6775  141.2926  162.2387 C.3     1  UNL1        0.1158
     22 O         138.4795  140.3918  162.2967 O.3     1  UNL1       -0.3820
     23 H         138.0847  140.3216  161.4135 H       1  UNL1        0.2107
     24 C         140.8754  142.1934  162.1806 C.ar    1  UNL1        0.0026
     25 C         141.6929  142.2743  160.9254 C.ar    1  UNL1        0.0011
     26 C         142.8908  143.1751  160.8673 C.ar    1  UNL1        0.0372
     27 C         143.2714  143.9950  162.0644 C.ar    1  UNL1        0.1454
     28 O         144.3908  144.9649  162.3019 O.2     1  UNL1       -0.4504
     29 C         144.2652  145.4833  163.7038 C.ar    1  UNL1        0.1796
     30 C         143.0682  144.8339  164.3327 C.ar    1  UNL1        0.0437
     31 C         142.4541  143.9141  163.3195 C.ar    1  UNL1        0.0375
     32 C         141.2561  143.0133  163.3776 C.ar    1  UNL1        0.0011
     33 C         138.9348  142.2212  161.3243 C.3     1  UNL1        0.0491
     34 C         137.8412  143.0926  161.8672 C.3     1  UNL1        0.0750
     35 N         138.1769  144.2425  162.7701 N.3     1  UNL1       -0.2702
     36 C         137.7908  144.1960  164.2188 C.3     1  UNL1        0.0897
     37 C         138.8987  145.4387  162.2244 C.3     1  UNL1        0.0897
@<TRIPOS>BOND
     1    13    14    1
     2    14     2    1
     3     2     3   ar
     4     3     4   ar
     5     4     5   ar
     6     5     6   ar
     7     6     7   ar
     8     7     8    1
     9     7     9   ar
    10     9    10   ar
    11    10    11   ar
    12    11    12   ar
    13     1    12    1
    14     1    15    1
    15    15    16   ar
    16    16    17   ar
    17    17    18   ar
    18    18    19   ar
    19    19    20   ar
    20     1    21    1
    21    21    22    1
    22    21    33    1
    23    33    34    1
    24    34    35    1
    25    35    36    1
    26    35    37    1
    27    21    24    1
    28    24    25   ar
    29    25    26   ar
    30    26    27   ar
    31    27    28   ar
    32    28    29   ar
    33    29    30   ar
    34    30    31   ar
    35    31    32   ar
    36    12     2   ar
    37    20    15   ar
    38    32    24   ar
    39    10     4   ar
    40    31    27   ar
    41    22    23    1
