@<TRIPOS>MOLECULE
*****
 35 38 0 0 0
SMALL
GASTEIGER

@<TRIPOS>ATOM
      1 C         138.6006  140.1069  165.3791 C.ar    1  UNL1        0.1360
      2 C         137.8428  140.5910  164.1786 C.ar    1  UNL1        0.0557
      3 C         138.3168  141.8017  163.4305 C.ar    1  UNL1        0.0855
      4 N         137.5589  142.2858  162.2299 N.ar    1  UNL1       -0.2435
      5 C         138.0330  143.4964  161.4818 C.ar    1  UNL1        0.1045
      6 C         139.2649  144.2229  161.9343 C.ar    1  UNL1        0.0856
      7 C         140.0227  143.7388  163.1348 C.ar    1  UNL1        0.0557
      8 C         139.5486  142.5282  163.8829 C.ar    1  UNL1        0.0311
      9 C         140.3064  142.0440  165.0834 C.ar    1  UNL1        0.0014
     10 C         139.8324  140.8334  165.8315 C.ar    1  UNL1        0.0117
     11 C         140.5903  140.3493  167.0321 C.3     1  UNL1        0.0281
     12 C         139.9879  140.4749  168.4001 C.3     1  UNL1        0.0218
     13 C         140.7457  139.9909  169.6007 C.3     1  UNL1        0.0725
     14 N         142.1059  139.3811  169.4333 N.3     1  UNL1       -0.2715
     15 C         142.8637  138.8970  170.6338 C.3     1  UNL1        0.0896
     16 C         142.7083  139.2555  168.0653 C.3     1  UNL1        0.0725
     17 C         141.9505  139.7396  166.8647 C.3     1  UNL1        0.0218
     18 C         139.7389  145.4336  161.1862 C.2     1  UNL1        0.2455
     19 N         140.0350  145.3401  159.7187 N.am    1  UNL1       -0.3252
     20 O         139.9168  146.7377  161.9056 O.2     1  UNL1       -0.2703
     21 H         139.9182  144.4841  159.2465 H       1  UNL1        0.1453
     22 H         140.3461  146.1346  159.2277 H       1  UNL1        0.1453
     23 N         141.2545  144.4653  163.5872 N.pl3   1  UNL1       -0.3106
     24 H         141.1891  145.3950  163.9046 H       1  UNL1        0.1523
     25 C         142.5861  143.7754  163.5561 C.ar    1  UNL1        0.0763
     26 C         143.3163  143.4964  164.8364 C.ar    1  UNL1        0.0192
     27 C         144.6478  142.8065  164.8054 C.ar    1  UNL1        0.0311
     28 C         145.2493  142.3956  163.4940 C.ar    1  UNL1        0.1425
     29 F         146.5808  141.7057  163.4630 F       1  UNL1       -0.2041
     30 C         144.5191  142.6746  162.2138 C.ar    1  UNL1        0.0605
     31 C         143.1875  143.3645  162.2449 C.ar    1  UNL1        0.1556
     32 F         142.4573  143.6435  160.9646 F       1  UNL1       -0.2028
     33 O         138.1265  138.8963  166.1272 O.3     1  UNL1       -0.4757
     34 C         139.6966  137.3734  164.7253 C.3     1  UNL1        0.0512
     35 C         138.5592  137.5280  165.6909 C.3     1  UNL1        0.2055
@<TRIPOS>BOND
     1    34    35    1
     2    35    33    1
     3    33     1    1
     4     1     2   ar
     5     2     3   ar
     6     3     4   ar
     7     4     5   ar
     8     5     6   ar
     9     6    18    1
    10    18    19   am
    11    18    20    2
    12     6     7   ar
    13     7    23    1
    14    23    25    1
    15    25    26   ar
    16    26    27   ar
    17    27    28   ar
    18    28    29    1
    19    28    30   ar
    20    30    31   ar
    21    31    32    1
    22     7     8   ar
    23     8     9   ar
    24     9    10   ar
    25    10    11    1
    26    11    12    1
    27    12    13    1
    28    13    14    1
    29    14    15    1
    30    14    16    1
    31    16    17    1
    32    10     1   ar
    33    17    11    1
    34     8     3   ar
    35    31    25   ar
    36    19    21    1
    37    19    22    1
    38    23    24    1
@<TRIPOS>MOLECULE
*****
 35 38 0 0 0
SMALL
GASTEIGER

@<TRIPOS>ATOM
      1 C         143.7957  142.2121  164.5977 C.ar    1  UNL1        0.1360
      2 C         143.7007  142.6253  166.0365 C.ar    1  UNL1        0.0557
      3 C         142.6917  141.9777  166.9378 C.ar    1  UNL1        0.0855
      4 N         142.5968  142.3910  168.3767 N.ar    1  UNL1       -0.2435
      5 C         141.5877  141.7434  169.2780 C.ar    1  UNL1        0.1045
      6 C         140.6736  140.6825  168.7405 C.ar    1  UNL1        0.0856
      7 C         140.7685  140.2692  167.3017 C.ar    1  UNL1        0.0557
      8 C         141.7776  140.9168  166.4003 C.ar    1  UNL1        0.0311
      9 C         141.8725  140.5036  164.9616 C.ar    1  UNL1        0.0014
     10 C         142.8816  141.1512  164.0602 C.ar    1  UNL1        0.0117
     11 C         142.9765  140.7379  162.6214 C.3     1  UNL1        0.0281
     12 C         142.0580  141.3471  161.6039 C.3     1  UNL1        0.0218
     13 C         142.1529  140.9339  160.1651 C.3     1  UNL1        0.0725
     14 N         143.1662  139.9113  159.7437 N.3     1  UNL1       -0.2715
     15 C         143.2611  139.4981  158.3049 C.3     1  UNL1        0.0896
     16 C         144.0847  139.3021  160.7612 C.3     1  UNL1        0.0725
     17 C         143.9898  139.7154  162.2000 C.3     1  UNL1        0.0218
     18 C         139.6645  140.0349  169.6418 C.2     1  UNL1        0.2455
     19 N         140.0010  139.7757  171.0804 N.am    1  UNL1       -0.3252
     20 O         138.3190  139.6464  169.1045 O.2     1  UNL1       -0.2703
     21 H         140.8841  140.0307  171.4331 H       1  UNL1        0.1453
     22 H         139.3387  139.3507  171.6720 H       1  UNL1        0.1453
     23 N         139.8544  139.2084  166.7642 N.pl3   1  UNL1       -0.3106
     24 H         139.6821  138.3943  167.2904 H       1  UNL1        0.1523
     25 C         139.2027  139.3878  165.4251 C.ar    1  UNL1        0.0763
     26 C         138.4067  140.6264  165.1384 C.ar    1  UNL1        0.0192
     27 C         137.7550  140.8059  163.7993 C.ar    1  UNL1        0.0311
     28 C         137.8994  139.7468  162.7469 C.ar    1  UNL1        0.1425
     29 F         137.2478  139.9263  161.4079 F       1  UNL1       -0.2041
     30 C         138.6955  138.5082  163.0336 C.ar    1  UNL1        0.0605
     31 C         139.3471  138.3288  164.3728 C.ar    1  UNL1        0.1556
     32 F         140.1432  137.0902  164.6595 F       1  UNL1       -0.2028
     33 O         144.8047  142.8597  163.6963 O.3     1  UNL1       -0.4757
     34 C         143.1559  144.7913  163.1486 C.3     1  UNL1        0.0512
     35 C         144.4058  144.0227  162.8372 C.3     1  UNL1        0.2055
@<TRIPOS>BOND
     1    34    35    1
     2    35    33    1
     3    33     1    1
     4     1     2   ar
     5     2     3   ar
     6     3     4   ar
     7     4     5   ar
     8     5     6   ar
     9     6    18    1
    10    18    19   am
    11    18    20    2
    12     6     7   ar
    13     7    23    1
    14    23    25    1
    15    25    26   ar
    16    26    27   ar
    17    27    28   ar
    18    28    29    1
    19    28    30   ar
    20    30    31   ar
    21    31    32    1
    22     7     8   ar
    23     8     9   ar
    24     9    10   ar
    25    10    11    1
    26    11    12    1
    27    12    13    1
    28    13    14    1
    29    14    15    1
    30    14    16    1
    31    16    17    1
    32    10     1   ar
    33    17    11    1
    34     8     3   ar
    35    31    25   ar
    36    19    21    1
    37    19    22    1
    38    23    24    1
@<TRIPOS>MOLECULE
*****
 35 38 0 0 0
SMALL
GASTEIGER

@<TRIPOS>ATOM
      1 C         142.4510  141.8315  167.4139 C.ar    1  UNL1        0.1360
      2 C         143.4097  142.5374  166.5015 C.ar    1  UNL1        0.0557
      3 C         142.8997  143.2510  165.2847 C.ar    1  UNL1        0.0855
      4 N         143.8585  143.9569  164.3723 N.ar    1  UNL1       -0.2435
      5 C         143.3485  144.6705  163.1555 C.ar    1  UNL1        0.1045
      6 C         141.8796  144.6782  162.8511 C.ar    1  UNL1        0.0856
      7 C         140.9209  143.9723  163.7635 C.ar    1  UNL1        0.0557
      8 C         141.4309  143.2587  164.9803 C.ar    1  UNL1        0.0311
      9 C         140.4722  142.5528  165.8927 C.ar    1  UNL1        0.0014
     10 C         140.9823  141.8392  167.1095 C.ar    1  UNL1        0.0117
     11 C         140.0235  141.1333  168.0219 C.3     1  UNL1        0.0281
     12 C         139.2264  139.9678  167.5156 C.3     1  UNL1        0.0218
     13 C         138.2676  139.2619  168.4279 C.3     1  UNL1        0.0725
     14 N         138.1059  139.7214  169.8467 N.3     1  UNL1       -0.2715
     15 C         137.1471  139.0155  170.7590 C.3     1  UNL1        0.0896
     16 C         138.9030  140.8869  170.3530 C.3     1  UNL1        0.0725
     17 C         139.8618  141.5928  169.4406 C.3     1  UNL1        0.0218
     18 C         141.3696  145.3918  161.6342 C.2     1  UNL1        0.2455
     19 N         142.0056  145.1449  160.2984 N.am    1  UNL1       -0.3252
     20 O         140.2236  146.3523  161.7533 O.2     1  UNL1       -0.2703
     21 H         142.7577  144.5146  160.2202 H       1  UNL1        0.1453
     22 H         141.6708  145.6133  159.4998 H       1  UNL1        0.1453
     23 N         139.4522  143.9800  163.4591 N.pl3   1  UNL1       -0.3106
     24 H         138.8941  144.7389  163.7452 H       1  UNL1        0.1523
     25 C         138.8337  142.8314  162.7186 C.ar    1  UNL1        0.0763
     26 C         139.1219  142.6374  161.2594 C.ar    1  UNL1        0.0192
     27 C         138.5034  141.4888  160.5190 C.ar    1  UNL1        0.0311
     28 C         137.5966  140.5342  161.2377 C.ar    1  UNL1        0.1425
     29 F         136.9781  139.3857  160.4973 F       1  UNL1       -0.2041
     30 C         137.3084  140.7282  162.6969 C.ar    1  UNL1        0.0605
     31 C         137.9269  141.8769  163.4374 C.ar    1  UNL1        0.1556
     32 F         137.6387  142.0709  164.8966 F       1  UNL1       -0.2028
     33 O         142.9610  141.1179  168.6307 O.3     1  UNL1       -0.4757
     34 C         142.8947  143.0580  170.3574 C.3     1  UNL1        0.0512
     35 C         143.6098  141.8938  169.7384 C.3     1  UNL1        0.2055
@<TRIPOS>BOND
     1    34    35    1
     2    35    33    1
     3    33     1    1
     4     1     2   ar
     5     2     3   ar
     6     3     4   ar
     7     4     5   ar
     8     5     6   ar
     9     6    18    1
    10    18    19   am
    11    18    20    2
    12     6     7   ar
    13     7    23    1
    14    23    25    1
    15    25    26   ar
    16    26    27   ar
    17    27    28   ar
    18    28    29    1
    19    28    30   ar
    20    30    31   ar
    21    31    32    1
    22     7     8   ar
    23     8     9   ar
    24     9    10   ar
    25    10    11    1
    26    11    12    1
    27    12    13    1
    28    13    14    1
    29    14    15    1
    30    14    16    1
    31    16    17    1
    32    10     1   ar
    33    17    11    1
    34     8     3   ar
    35    31    25   ar
    36    19    21    1
    37    19    22    1
    38    23    24    1
@<TRIPOS>MOLECULE
*****
 35 38 0 0 0
SMALL
GASTEIGER

@<TRIPOS>ATOM
      1 C         138.2236  141.1350  162.5247 C.ar    1  UNL1        0.1360
      2 C         137.6965  140.2180  163.5883 C.ar    1  UNL1        0.0557
      3 C         138.3615  140.1672  164.9318 C.ar    1  UNL1        0.0855
      4 N         137.8343  139.2502  165.9955 N.ar    1  UNL1       -0.2435
      5 C         138.4993  139.1994  167.3390 C.ar    1  UNL1        0.1045
      6 C         139.6916  140.0655  167.6190 C.ar    1  UNL1        0.0856
      7 C         140.2188  140.9825  166.5554 C.ar    1  UNL1        0.0557
      8 C         139.5537  141.0333  165.2118 C.ar    1  UNL1        0.0311
      9 C         140.0809  141.9502  164.1482 C.ar    1  UNL1        0.0014
     10 C         139.4159  142.0011  162.8047 C.ar    1  UNL1        0.0117
     11 C         139.9431  142.9181  161.7411 C.3     1  UNL1        0.0281
     12 C         140.8074  142.3738  160.6425 C.3     1  UNL1        0.0218
     13 C         141.3346  143.2907  159.5789 C.3     1  UNL1        0.0725
     14 N         140.9976  144.7520  159.6139 N.3     1  UNL1       -0.2715
     15 C         141.5248  145.6689  158.5503 C.3     1  UNL1        0.0896
     16 C         140.1333  145.2963  160.7124 C.3     1  UNL1        0.0725
     17 C         139.6061  144.3793  161.7760 C.3     1  UNL1        0.0218
     18 C         140.3566  140.0147  168.9625 C.2     1  UNL1        0.2455
     19 N         139.5248  139.9588  170.2095 N.am    1  UNL1       -0.3252
     20 O         141.8535  140.0198  169.0591 O.2     1  UNL1       -0.2703
     21 H         138.5424  139.9555  170.1461 H       1  UNL1        0.1453
     22 H         139.9613  139.9255  171.0913 H       1  UNL1        0.1453
     23 N         141.4110  141.8486  166.8353 N.pl3   1  UNL1       -0.3106
     24 H         141.3923  142.4836  167.5874 H       1  UNL1        0.1523
     25 C         142.6316  141.7472  165.9694 C.ar    1  UNL1        0.0763
     26 C         143.3253  142.9924  165.5022 C.ar    1  UNL1        0.0192
     27 C         144.5459  142.8910  164.6363 C.ar    1  UNL1        0.0311
     28 C         145.0729  141.5444  164.2376 C.ar    1  UNL1        0.1425
     29 F         146.2935  141.4430  163.3718 F       1  UNL1       -0.2041
     30 C         144.3793  140.2992  164.7048 C.ar    1  UNL1        0.0605
     31 C         143.1586  140.4006  165.5708 C.ar    1  UNL1        0.1556
     32 F         142.4650  139.1554  166.0380 F       1  UNL1       -0.2028
     33 O         137.5586  141.1858  161.1811 O.3     1  UNL1       -0.4757
     34 C         138.9471  139.1397  160.3839 C.3     1  UNL1        0.0512
     35 C         137.8173  140.1040  160.1748 C.3     1  UNL1        0.2055
@<TRIPOS>BOND
     1    34    35    1
     2    35    33    1
     3    33     1    1
     4     1     2   ar
     5     2     3   ar
     6     3     4   ar
     7     4     5   ar
     8     5     6   ar
     9     6    18    1
    10    18    19   am
    11    18    20    2
    12     6     7   ar
    13     7    23    1
    14    23    25    1
    15    25    26   ar
    16    26    27   ar
    17    27    28   ar
    18    28    29    1
    19    28    30   ar
    20    30    31   ar
    21    31    32    1
    22     7     8   ar
    23     8     9   ar
    24     9    10   ar
    25    10    11    1
    26    11    12    1
    27    12    13    1
    28    13    14    1
    29    14    15    1
    30    14    16    1
    31    16    17    1
    32    10     1   ar
    33    17    11    1
    34     8     3   ar
    35    31    25   ar
    36    19    21    1
    37    19    22    1
    38    23    24    1
@<TRIPOS>MOLECULE
*****
 35 38 0 0 0
SMALL
GASTEIGER

@<TRIPOS>ATOM
      1 C         139.4024  138.2523  163.0203 C.ar    1  UNL1        0.1360
      2 C         139.3676  138.0537  161.5339 C.ar    1  UNL1        0.0557
      3 C         139.0491  139.2078  160.6303 C.ar    1  UNL1        0.0855
      4 N         139.0143  139.0091  159.1438 N.ar    1  UNL1       -0.2435
      5 C         138.6959  140.1633  158.2402 C.ar    1  UNL1        0.1045
      6 C         138.4123  141.5161  158.8230 C.ar    1  UNL1        0.0856
      7 C         138.4471  141.7147  160.3093 C.ar    1  UNL1        0.0557
      8 C         138.7655  140.5606  161.2130 C.ar    1  UNL1        0.0311
      9 C         138.8004  140.7592  162.6993 C.ar    1  UNL1        0.0014
     10 C         139.1188  139.6051  163.6030 C.ar    1  UNL1        0.0117
     11 C         139.1536  139.8037  165.0894 C.3     1  UNL1        0.0281
     12 C         138.2266  139.0222  165.9724 C.3     1  UNL1        0.0218
     13 C         138.2614  139.2208  167.4588 C.3     1  UNL1        0.0725
     14 N         139.2233  140.2011  168.0622 N.3     1  UNL1       -0.2715
     15 C         139.2581  140.3997  169.5485 C.3     1  UNL1        0.0896
     16 C         140.1503  140.9827  167.1791 C.3     1  UNL1        0.0725
     17 C         140.1154  140.7840  165.6927 C.3     1  UNL1        0.0218
     18 C         138.0938  142.6702  157.9193 C.2     1  UNL1        0.2455
     19 N         136.9598  142.5676  156.9429 N.am    1  UNL1       -0.3252
     20 O         138.9095  143.9270  157.9920 O.2     1  UNL1       -0.2703
     21 H         136.4244  141.7428  156.8952 H       1  UNL1        0.1453
     22 H         136.7508  143.3251  156.3499 H       1  UNL1        0.1453
     23 N         138.1635  143.0674  160.8920 N.pl3   1  UNL1       -0.3106
     24 H         137.2906  143.4962  160.7388 H       1  UNL1        0.1523
     25 C         139.2099  143.7669  161.7081 C.ar    1  UNL1        0.0763
     26 C         140.6096  143.8931  161.1838 C.ar    1  UNL1        0.0192
     27 C         141.6559  144.5926  161.9999 C.ar    1  UNL1        0.0311
     28 C         141.3025  145.1658  163.3402 C.ar    1  UNL1        0.1425
     29 F         142.3489  145.8653  164.1563 F       1  UNL1       -0.2041
     30 C         139.9028  145.0397  163.8645 C.ar    1  UNL1        0.0605
     31 C         138.8565  144.3402  163.0484 C.ar    1  UNL1        0.1556
     32 F         137.4567  144.2140  163.5727 F       1  UNL1       -0.2028
     33 O         139.7208  137.0982  163.9239 O.3     1  UNL1       -0.4757
     34 C         142.1335  137.9324  164.4068 C.3     1  UNL1        0.0512
     35 C         141.1442  136.8100  164.2992 C.3     1  UNL1        0.2055
@<TRIPOS>BOND
     1    34    35    1
     2    35    33    1
     3    33     1    1
     4     1     2   ar
     5     2     3   ar
     6     3     4   ar
     7     4     5   ar
     8     5     6   ar
     9     6    18    1
    10    18    19   am
    11    18    20    2
    12     6     7   ar
    13     7    23    1
    14    23    25    1
    15    25    26   ar
    16    26    27   ar
    17    27    28   ar
    18    28    29    1
    19    28    30   ar
    20    30    31   ar
    21    31    32    1
    22     7     8   ar
    23     8     9   ar
    24     9    10   ar
    25    10    11    1
    26    11    12    1
    27    12    13    1
    28    13    14    1
    29    14    15    1
    30    14    16    1
    31    16    17    1
    32    10     1   ar
    33    17    11    1
    34     8     3   ar
    35    31    25   ar
    36    19    21    1
    37    19    22    1
    38    23    24    1
@<TRIPOS>MOLECULE
*****
 35 38 0 0 0
SMALL
GASTEIGER

@<TRIPOS>ATOM
      1 C         143.2471  142.4632  164.8665 C.ar    1  UNL1        0.1360
      2 C         143.2801  142.0230  166.3000 C.ar    1  UNL1        0.0557
      3 C         142.0657  141.3989  166.9211 C.ar    1  UNL1        0.0855
      4 N         142.0987  140.9586  168.3547 N.ar    1  UNL1       -0.2435
      5 C         140.8843  140.3346  168.9757 C.ar    1  UNL1        0.1045
      6 C         139.6368  140.1507  168.1631 C.ar    1  UNL1        0.0856
      7 C         139.6038  140.5909  166.7296 C.ar    1  UNL1        0.0557
      8 C         140.8183  141.2150  166.1086 C.ar    1  UNL1        0.0311
      9 C         140.7853  141.6553  164.6750 C.ar    1  UNL1        0.0014
     10 C         141.9997  142.2794  164.0540 C.ar    1  UNL1        0.0117
     11 C         141.9667  142.7196  162.6204 C.3     1  UNL1        0.0281
     12 C         141.6709  144.1507  162.2819 C.3     1  UNL1        0.0218
     13 C         141.6379  144.5909  160.8484 C.3     1  UNL1        0.0725
     14 N         141.9007  143.6001  159.7532 N.3     1  UNL1       -0.2715
     15 C         141.8676  144.0404  158.3197 C.3     1  UNL1        0.0896
     16 C         142.1965  142.1691  160.0917 C.3     1  UNL1        0.0725
     17 C         142.2295  141.7288  161.5253 C.3     1  UNL1        0.0218
     18 C         138.4224  139.5266  168.7842 C.2     1  UNL1        0.2455
     19 N         138.0649  139.8362  170.2077 N.am    1  UNL1       -0.3252
     20 O         137.5655  138.5929  167.9817 O.2     1  UNL1       -0.2703
     21 H         138.6273  140.4490  170.7344 H       1  UNL1        0.1453
     22 H         137.2678  139.4266  170.6153 H       1  UNL1        0.1453
     23 N         138.3565  140.4071  165.9171 N.pl3   1  UNL1       -0.3106
     24 H         137.4922  140.7277  166.2628 H       1  UNL1        0.1523
     25 C         138.4259  139.7348  164.5780 C.ar    1  UNL1        0.0763
     26 C         137.9358  140.4495  163.3537 C.ar    1  UNL1        0.0192
     27 C         138.0052  139.7772  162.0146 C.ar    1  UNL1        0.0311
     28 C         138.5647  138.3902  161.8998 C.ar    1  UNL1        0.1425
     29 F         138.6342  137.7179  160.5607 F       1  UNL1       -0.2041
     30 C         139.0548  137.6755  163.1241 C.ar    1  UNL1        0.0605
     31 C         138.9854  138.3478  164.4632 C.ar    1  UNL1        0.1556
     32 F         139.4755  137.6331  165.6876 F       1  UNL1       -0.2028
     33 O         144.4615  143.0873  164.2454 O.3     1  UNL1       -0.4757
     34 C         145.3203  140.7599  163.4736 C.3     1  UNL1        0.0512
     35 C         145.5666  142.2186  163.7219 C.3     1  UNL1        0.2055
@<TRIPOS>BOND
     1    34    35    1
     2    35    33    1
     3    33     1    1
     4     1     2   ar
     5     2     3   ar
     6     3     4   ar
     7     4     5   ar
     8     5     6   ar
     9     6    18    1
    10    18    19   am
    11    18    20    2
    12     6     7   ar
    13     7    23    1
    14    23    25    1
    15    25    26   ar
    16    26    27   ar
    17    27    28   ar
    18    28    29    1
    19    28    30   ar
    20    30    31   ar
    21    31    32    1
    22     7     8   ar
    23     8     9   ar
    24     9    10   ar
    25    10    11    1
    26    11    12    1
    27    12    13    1
    28    13    14    1
    29    14    15    1
    30    14    16    1
    31    16    17    1
    32    10     1   ar
    33    17    11    1
    34     8     3   ar
    35    31    25   ar
    36    19    21    1
    37    19    22    1
    38    23    24    1
@<TRIPOS>MOLECULE
*****
 35 38 0 0 0
SMALL
GASTEIGER

@<TRIPOS>ATOM
      1 C         143.2786  143.3604  164.4985 C.ar    1  UNL1        0.1360
      2 C         143.7607  142.9875  165.8691 C.ar    1  UNL1        0.0557
      3 C         142.8678  142.2141  166.7936 C.ar    1  UNL1        0.0855
      4 N         143.3500  141.8413  168.1643 N.ar    1  UNL1       -0.2435
      5 C         142.4571  141.0679  169.0887 C.ar    1  UNL1        0.1045
      6 C         141.0821  140.6673  168.6426 C.ar    1  UNL1        0.0856
      7 C         140.6001  141.0401  167.2720 C.ar    1  UNL1        0.0557
      8 C         141.4929  141.8135  166.3475 C.ar    1  UNL1        0.0311
      9 C         141.0108  142.1864  164.9769 C.ar    1  UNL1        0.0014
     10 C         141.9037  142.9598  164.0524 C.ar    1  UNL1        0.0117
     11 C         141.4215  143.3326  162.6818 C.3     1  UNL1        0.0281
     12 C         141.3586  142.2946  161.6008 C.3     1  UNL1        0.0218
     13 C         140.8765  142.6674  160.2302 C.3     1  UNL1        0.0725
     14 N         140.4572  144.0782  159.9406 N.3     1  UNL1       -0.2715
     15 C         139.9751  144.4510  158.5700 C.3     1  UNL1        0.0896
     16 C         140.5201  145.1162  161.0216 C.3     1  UNL1        0.0725
     17 C         141.0023  144.7434  162.3922 C.3     1  UNL1        0.0218
     18 C         140.1893  139.8939  169.5670 C.2     1  UNL1        0.2455
     19 N         140.7794  139.1323  170.7167 N.am    1  UNL1       -0.3252
     20 O         138.7063  139.8821  169.3418 O.2     1  UNL1       -0.2703
     21 H         141.7527  139.1400  170.8645 H       1  UNL1        0.1453
     22 H         140.1934  138.6247  171.3234 H       1  UNL1        0.1453
     23 N         139.2251  140.6395  166.8259 N.pl3   1  UNL1       -0.3106
     24 H         138.4423  140.8700  167.3766 H       1  UNL1        0.1523
     25 C         139.0429  139.8877  165.5407 C.ar    1  UNL1        0.0763
     26 C         139.6216  138.5123  165.3879 C.ar    1  UNL1        0.0192
     27 C         139.4394  137.7605  164.1028 C.ar    1  UNL1        0.0311
     28 C         138.6785  138.3841  162.9704 C.ar    1  UNL1        0.1425
     29 F         138.4963  137.6323  161.6853 F       1  UNL1       -0.2041
     30 C         138.0998  139.7595  163.1232 C.ar    1  UNL1        0.0605
     31 C         138.2821  140.5113  164.4084 C.ar    1  UNL1        0.1556
     32 F         137.7034  141.8868  164.5612 F       1  UNL1       -0.2028
     33 O         144.1714  144.1338  163.5741 O.3     1  UNL1       -0.4757
     34 C         145.2199  141.9900  162.5470 C.3     1  UNL1        0.0512
     35 C         144.8495  143.4389  162.4307 C.3     1  UNL1        0.2055
@<TRIPOS>BOND
     1    34    35    1
     2    35    33    1
     3    33     1    1
     4     1     2   ar
     5     2     3   ar
     6     3     4   ar
     7     4     5   ar
     8     5     6   ar
     9     6    18    1
    10    18    19   am
    11    18    20    2
    12     6     7   ar
    13     7    23    1
    14    23    25    1
    15    25    26   ar
    16    26    27   ar
    17    27    28   ar
    18    28    29    1
    19    28    30   ar
    20    30    31   ar
    21    31    32    1
    22     7     8   ar
    23     8     9   ar
    24     9    10   ar
    25    10    11    1
    26    11    12    1
    27    12    13    1
    28    13    14    1
    29    14    15    1
    30    14    16    1
    31    16    17    1
    32    10     1   ar
    33    17    11    1
    34     8     3   ar
    35    31    25   ar
    36    19    21    1
    37    19    22    1
    38    23    24    1
@<TRIPOS>MOLECULE
*****
 35 38 0 0 0
SMALL
GASTEIGER

@<TRIPOS>ATOM
      1 C         144.0891  139.7071  162.9820 C.ar    1  UNL1        0.1360
      2 C         144.3056  139.4099  161.5278 C.ar    1  UNL1        0.0557
      3 C         143.1292  139.1810  160.6258 C.ar    1  UNL1        0.0855
      4 N         143.3458  138.8837  159.1716 N.ar    1  UNL1       -0.2435
      5 C         142.1694  138.6548  158.2695 C.ar    1  UNL1        0.1045
      6 C         140.7764  138.7231  158.8218 C.ar    1  UNL1        0.0856
      7 C         140.5598  139.0203  160.2760 C.ar    1  UNL1        0.0557
      8 C         141.7362  139.2493  161.1780 C.ar    1  UNL1        0.0311
      9 C         141.5197  139.5465  162.6322 C.ar    1  UNL1        0.0014
     10 C         142.6961  139.7754  163.5342 C.ar    1  UNL1        0.0117
     11 C         142.4795  140.0727  164.9885 C.3     1  UNL1        0.0281
     12 C         142.8163  139.0403  166.0232 C.3     1  UNL1        0.0218
     13 C         142.5998  139.3375  167.4774 C.3     1  UNL1        0.0725
     14 N         142.0463  140.6671  167.8969 N.3     1  UNL1       -0.2715
     15 C         141.8298  140.9643  169.3511 C.3     1  UNL1        0.0896
     16 C         141.7095  141.6995  166.8622 C.3     1  UNL1        0.0725
     17 C         141.9261  141.4022  165.4079 C.3     1  UNL1        0.0218
     18 C         139.6000  138.4942  157.9198 C.2     1  UNL1        0.2455
     19 N         139.5329  137.2572  157.0740 N.am    1  UNL1       -0.3252
     20 O         138.4906  139.5023  157.8636 O.2     1  UNL1       -0.2703
     21 H         140.2610  136.5956  157.1109 H       1  UNL1        0.1453
     22 H         138.7607  137.1070  156.4820 H       1  UNL1        0.1453
     23 N         139.1669  139.0887  160.8282 N.pl3   1  UNL1       -0.3106
     24 H         138.5680  138.3111  160.7507 H       1  UNL1        0.1523
     25 C         138.6863  140.3417  161.4983 C.ar    1  UNL1        0.0763
     26 C         138.7227  141.6476  160.7613 C.ar    1  UNL1        0.0192
     27 C         138.2421  142.9006  161.4313 C.ar    1  UNL1        0.0311
     28 C         137.7252  142.8478  162.8385 C.ar    1  UNL1        0.1425
     29 F         137.2447  144.1008  163.5086 F       1  UNL1       -0.2041
     30 C         137.6889  141.5418  163.5755 C.ar    1  UNL1        0.0605
     31 C         138.1694  140.2888  162.9054 C.ar    1  UNL1        0.1556
     32 F         138.1331  138.9828  163.6424 F       1  UNL1       -0.2028
     33 O         145.2655  139.9361  163.8841 O.3     1  UNL1       -0.4757
     34 C         145.0838  142.5169  163.6468 C.3     1  UNL1        0.0512
     35 C         145.8938  141.2956  163.9668 C.3     1  UNL1        0.2055
@<TRIPOS>BOND
     1    34    35    1
     2    35    33    1
     3    33     1    1
     4     1     2   ar
     5     2     3   ar
     6     3     4   ar
     7     4     5   ar
     8     5     6   ar
     9     6    18    1
    10    18    19   am
    11    18    20    2
    12     6     7   ar
    13     7    23    1
    14    23    25    1
    15    25    26   ar
    16    26    27   ar
    17    27    28   ar
    18    28    29    1
    19    28    30   ar
    20    30    31   ar
    21    31    32    1
    22     7     8   ar
    23     8     9   ar
    24     9    10   ar
    25    10    11    1
    26    11    12    1
    27    12    13    1
    28    13    14    1
    29    14    15    1
    30    14    16    1
    31    16    17    1
    32    10     1   ar
    33    17    11    1
    34     8     3   ar
    35    31    25   ar
    36    19    21    1
    37    19    22    1
    38    23    24    1
@<TRIPOS>MOLECULE
*****
 35 38 0 0 0
SMALL
GASTEIGER

@<TRIPOS>ATOM
      1 C         139.1928  138.6790  163.2819 C.ar    1  UNL1        0.1360
      2 C         138.5891  138.8080  164.6490 C.ar    1  UNL1        0.0557
      3 C         139.4240  139.2991  165.7943 C.ar    1  UNL1        0.0855
      4 N         138.8202  139.4282  167.1614 N.ar    1  UNL1       -0.2435
      5 C         139.6551  139.9193  168.3067 C.ar    1  UNL1        0.1045
      6 C         141.0938  140.2813  168.0849 C.ar    1  UNL1        0.0856
      7 C         141.6976  140.1522  166.7179 C.ar    1  UNL1        0.0557
      8 C         140.8626  139.6611  165.5726 C.ar    1  UNL1        0.0311
      9 C         141.4664  139.5320  164.2056 C.ar    1  UNL1        0.0014
     10 C         140.6315  139.0409  163.0602 C.ar    1  UNL1        0.0117
     11 C         141.2353  138.9119  161.6932 C.3     1  UNL1        0.0281
     12 C         142.0965  137.7291  161.3623 C.3     1  UNL1        0.0218
     13 C         142.7003  137.6000  159.9953 C.3     1  UNL1        0.0725
     14 N         142.4429  138.6537  158.9591 N.3     1  UNL1       -0.2715
     15 C         143.0467  138.5245  157.5921 C.3     1  UNL1        0.0896
     16 C         141.5817  139.8364  159.2900 C.3     1  UNL1        0.0725
     17 C         140.9779  139.9655  160.6571 C.3     1  UNL1        0.0218
     18 C         141.9287  140.7724  169.2302 C.2     1  UNL1        0.2455
     19 N         141.5058  141.9888  169.9993 N.am    1  UNL1       -0.3252
     20 O         143.1867  140.0470  169.6065 O.2     1  UNL1       -0.2703
     21 H         140.6802  142.4648  169.7523 H       1  UNL1        0.1453
     22 H         142.0538  142.3111  170.7510 H       1  UNL1        0.1453
     23 N         143.1362  140.5142  166.4962 N.pl3   1  UNL1       -0.3106
     24 H         143.8425  140.0634  167.0130 H       1  UNL1        0.1523
     25 C         143.4988  141.5631  165.4870 C.ar    1  UNL1        0.0763
     26 C         142.7437  142.8586  165.4474 C.ar    1  UNL1        0.0192
     27 C         143.1062  143.9075  164.4383 C.ar    1  UNL1        0.0311
     28 C         144.2238  143.6609  163.4687 C.ar    1  UNL1        0.1425
     29 F         144.5863  144.7098  162.4595 F       1  UNL1       -0.2041
     30 C         144.9789  142.3654  163.5082 C.ar    1  UNL1        0.0605
     31 C         144.6164  141.3165  164.5174 C.ar    1  UNL1        0.1556
     32 F         145.3715  140.0210  164.5570 F       1  UNL1       -0.2028
     33 O         138.3579  138.1879  162.1366 O.3     1  UNL1       -0.4757
     34 C         137.5709  140.6189  161.6670 C.3     1  UNL1        0.0512
     35 C         137.5291  139.1547  161.3440 C.3     1  UNL1        0.2055
@<TRIPOS>BOND
     1    34    35    1
     2    35    33    1
     3    33     1    1
     4     1     2   ar
     5     2     3   ar
     6     3     4   ar
     7     4     5   ar
     8     5     6   ar
     9     6    18    1
    10    18    19   am
    11    18    20    2
    12     6     7   ar
    13     7    23    1
    14    23    25    1
    15    25    26   ar
    16    26    27   ar
    17    27    28   ar
    18    28    29    1
    19    28    30   ar
    20    30    31   ar
    21    31    32    1
    22     7     8   ar
    23     8     9   ar
    24     9    10   ar
    25    10    11    1
    26    11    12    1
    27    12    13    1
    28    13    14    1
    29    14    15    1
    30    14    16    1
    31    16    17    1
    32    10     1   ar
    33    17    11    1
    34     8     3   ar
    35    31    25   ar
    36    19    21    1
    37    19    22    1
    38    23    24    1
