@<TRIPOS>MOLECULE
*****
 29 32 0 0 0
SMALL
GASTEIGER

@<TRIPOS>ATOM
      1 C         141.8862  140.2923  168.3060 C.3     1  UNL1        0.0204
      2 C         142.8028  140.3850  167.1222 C.3     1  UNL1        0.0724
      3 N         142.4662  141.3008  165.9830 N.3     1  UNL1       -0.2731
      4 C         143.1720  141.6003  164.6937 C.3     1  UNL1        0.0729
      5 C         142.3550  142.6084  163.9413 C.3     1  UNL1        0.0314
      6 C         141.1442  142.9321  164.7656 C.3     1  UNL1        0.1037
      7 C         139.9335  143.2558  165.5899 C.2     1  UNL1        0.2303
      8 O         139.5986  142.6735  166.9311 O.2     1  UNL1       -0.2744
      9 N         139.1165  144.2639  164.8375 N.am    1  UNL1       -0.2839
     10 C         139.8223  144.5634  163.5482 C.ar    1  UNL1        0.0467
     11 C         139.4857  145.4792  162.4089 C.ar    1  UNL1        0.0144
     12 C         140.4023  145.5719  161.2252 C.ar    1  UNL1        0.0013
     13 C         141.6555  144.7488  161.1808 C.ar    1  UNL1       -0.0002
     14 C         141.9921  143.8329  162.3201 C.ar    1  UNL1       -0.0026
     15 C         141.0755  143.7403  163.5038 C.ar    1  UNL1        0.0002
     16 C         141.2130  142.1239  166.0274 C.3     1  UNL1        0.0698
     17 C         140.2964  142.0312  167.2111 C.3     1  UNL1        0.0215
     18 C         140.6330  141.1154  168.3505 C.3     1  UNL1        0.0345
     19 H         138.2663  144.6596  165.1372 H       1  UNL1        0.1549
     20 C         143.0187  139.8883  170.6091 C.3     1  UNL1        0.0001
     21 C         142.2227  139.3765  169.4453 C.3     1  UNL1        0.0017
     22 C         139.7163  141.0227  169.5341 C.2     1  UNL1        0.0900
     23 C         139.8485  142.0011  170.6635 C.2     1  UNL1        0.1744
     24 O         140.8972  143.0721  170.6091 O.2     1  UNL1       -0.4685
     25 C         140.5504  144.4357  170.0894 C.3     1  UNL1        0.2526
     26 C         138.6676  139.9517  169.5885 C.2     1  UNL1        0.3403
     27 O         138.3167  139.1819  168.3499 O.2     1  UNL1       -0.2451
     28 O         137.9697  139.6504  170.8817 O.3     1  UNL1       -0.4415
     29 C         136.6463  138.9442  170.8730 C.3     1  UNL1        0.2559
@<TRIPOS>BOND
     1    20    21    1
     2     1    21    1
     3     1     2    1
     4     2     3    1
     5     3     4    1
     6     4     5    1
     7     6     5    1
     8     6     7    1
     9     7     8    2
    10     7     9   am
    11     9    10    1
    12    10    11   ar
    13    11    12   ar
    14    12    13   ar
    15    13    14   ar
    16    14    15   ar
    17     6    16    1
    18    16    17    1
    19    17    18    1
    20    18    22    1
    21    22    23    2
    22    23    24    1
    23    24    25    1
    24    22    26    1
    25    26    27    2
    26    26    28    1
    27    28    29    1
    28    18     1    1
    29    16     3    1
    30    15     6    1
    31    15    10   ar
    32     9    19    1
@<TRIPOS>MOLECULE
*****
 29 32 0 0 0
SMALL
GASTEIGER

@<TRIPOS>ATOM
      1 C         138.8209  139.7918  162.2525 C.3     1  UNL1        0.0204
      2 C         138.4474  138.9177  163.4129 C.3     1  UNL1        0.0724
      3 N         138.7884  139.3408  164.8110 N.3     1  UNL1       -0.2731
      4 C         138.5498  138.6923  166.1423 C.3     1  UNL1        0.0729
      5 C         139.1168  139.5887  167.2029 C.3     1  UNL1        0.0314
      6 C         139.7059  140.7913  166.5271 C.3     1  UNL1        0.1037
      7 C         140.2950  141.9939  165.8512 C.2     1  UNL1        0.2303
      8 O         140.3138  142.2543  164.3741 O.2     1  UNL1       -0.2744
      9 N         140.8620  142.8903  166.9118 N.am    1  UNL1       -0.2839
     10 C         140.6234  142.2418  168.2431 C.ar    1  UNL1        0.0467
     11 C         140.9644  142.6649  169.6412 C.ar    1  UNL1        0.0144
     12 C         140.5908  141.7908  170.8015 C.ar    1  UNL1        0.0013
     13 C         139.8763  140.4935  170.5637 C.ar    1  UNL1       -0.0002
     14 C         139.5353  140.0704  169.1657 C.ar    1  UNL1       -0.0026
     15 C         139.9088  140.9445  168.0054 C.ar    1  UNL1        0.0002
     16 C         139.5029  140.6381  165.0488 C.3     1  UNL1        0.0698
     17 C         139.8765  141.5122  163.8885 C.3     1  UNL1        0.0215
     18 C         139.5355  141.0891  162.4903 C.3     1  UNL1        0.0345
     19 H         141.3119  143.7529  166.7606 H       1  UNL1        0.1549
     20 C         139.4139  138.4762  160.0921 C.3     1  UNL1        0.0001
     21 C         138.4799  139.3687  160.8545 C.3     1  UNL1        0.0017
     22 C         139.9090  141.9632  161.3300 C.2     1  UNL1        0.0900
     23 C         141.2004  141.7327  160.6025 C.2     1  UNL1        0.1744
     24 O         142.1182  140.6280  161.0352 O.2     1  UNL1       -0.4685
     25 C         143.3040  140.9340  161.9013 C.3     1  UNL1        0.2526
     26 C         138.9912  143.0679  160.8972 C.2     1  UNL1        0.3403
     27 O         139.2429  143.7898  159.6067 O.2     1  UNL1       -0.2451
     28 O         137.8217  143.4507  161.7551 O.3     1  UNL1       -0.4415
     29 C         137.9941  144.4603  162.8510 C.3     1  UNL1        0.2559
@<TRIPOS>BOND
     1    20    21    1
     2     1    21    1
     3     1     2    1
     4     2     3    1
     5     3     4    1
     6     4     5    1
     7     6     5    1
     8     6     7    1
     9     7     8    2
    10     7     9   am
    11     9    10    1
    12    10    11   ar
    13    11    12   ar
    14    12    13   ar
    15    13    14   ar
    16    14    15   ar
    17     6    16    1
    18    16    17    1
    19    17    18    1
    20    18    22    1
    21    22    23    2
    22    23    24    1
    23    24    25    1
    24    22    26    1
    25    26    27    2
    26    26    28    1
    27    28    29    1
    28    18     1    1
    29    16     3    1
    30    15     6    1
    31    15    10   ar
    32     9    19    1
@<TRIPOS>MOLECULE
*****
 29 32 0 0 0
SMALL
GASTEIGER

@<TRIPOS>ATOM
      1 C         140.9919  141.0708  162.1166 C.3     1  UNL1        0.0204
      2 C         139.8480  140.5213  162.9164 C.3     1  UNL1        0.0724
      3 N         139.9105  140.5252  164.4151 N.3     1  UNL1       -0.2731
      4 C         138.9439  140.0546  165.4612 C.3     1  UNL1        0.0729
      5 C         139.5529  140.3172  166.8067 C.3     1  UNL1        0.0314
      6 C         140.8959  140.9500  166.5921 C.3     1  UNL1        0.1037
      7 C         142.2388  141.5829  166.3775 C.2     1  UNL1        0.2303
      8 O         142.8632  141.8979  165.0505 O.2     1  UNL1       -0.2744
      9 N         142.8478  141.8454  167.7230 N.am    1  UNL1       -0.2839
     10 C         141.8812  141.3748  168.7691 C.ar    1  UNL1        0.0467
     11 C         141.9437  141.3787  170.2678 C.ar    1  UNL1        0.0144
     12 C         140.7998  140.8292  171.0675 C.ar    1  UNL1        0.0013
     13 C         139.5935  140.2758  170.3686 C.ar    1  UNL1       -0.0002
     14 C         139.5310  140.2720  168.8699 C.ar    1  UNL1       -0.0026
     15 C         140.6749  140.8214  168.0702 C.ar    1  UNL1        0.0002
     16 C         141.1168  141.0786  165.1140 C.3     1  UNL1        0.0698
     17 C         142.2607  141.6281  164.3143 C.3     1  UNL1        0.0215
     18 C         142.1982  141.6242  162.8156 C.3     1  UNL1        0.0345
     19 H         143.7274  142.2547  167.8901 H       1  UNL1        0.1549
     20 C         139.7748  141.7158  159.9138 C.3     1  UNL1        0.0001
     21 C         140.9294  141.0670  160.6180 C.3     1  UNL1        0.0017
     22 C         143.3421  142.1737  162.0158 C.2     1  UNL1        0.0900
     23 C         144.4524  141.2669  161.5741 C.2     1  UNL1        0.1744
     24 O         144.4188  139.8107  161.9322 O.2     1  UNL1       -0.4685
     25 C         143.9728  138.7992  160.9184 C.3     1  UNL1        0.2526
     26 C         143.3757  143.6300  161.6577 C.2     1  UNL1        0.3403
     27 O         142.6145  144.1266  160.4645 O.2     1  UNL1       -0.2451
     28 O         144.1706  144.5895  162.4929 O.3     1  UNL1       -0.4415
     29 C         143.6001  145.1181  163.7756 C.3     1  UNL1        0.2559
@<TRIPOS>BOND
     1    20    21    1
     2     1    21    1
     3     1     2    1
     4     2     3    1
     5     3     4    1
     6     4     5    1
     7     6     5    1
     8     6     7    1
     9     7     8    2
    10     7     9   am
    11     9    10    1
    12    10    11   ar
    13    11    12   ar
    14    12    13   ar
    15    13    14   ar
    16    14    15   ar
    17     6    16    1
    18    16    17    1
    19    17    18    1
    20    18    22    1
    21    22    23    2
    22    23    24    1
    23    24    25    1
    24    22    26    1
    25    26    27    2
    26    26    28    1
    27    28    29    1
    28    18     1    1
    29    16     3    1
    30    15     6    1
    31    15    10   ar
    32     9    19    1
@<TRIPOS>MOLECULE
*****
 29 32 0 0 0
SMALL
GASTEIGER

@<TRIPOS>ATOM
      1 C         138.8930  139.8713  162.1937 C.3     1  UNL1        0.0204
      2 C         138.4832  138.9929  163.3385 C.3     1  UNL1        0.0724
      3 N         138.8179  139.3900  164.7457 N.3     1  UNL1       -0.2731
      4 C         138.5467  138.7316  166.0659 C.3     1  UNL1        0.0729
      5 C         139.1235  139.6001  167.1443 C.3     1  UNL1        0.0314
      6 C         139.7512  140.7954  166.4906 C.3     1  UNL1        0.1037
      7 C         140.3790  141.9907  165.8368 C.2     1  UNL1        0.2303
      8 O         140.4223  142.2685  164.3634 O.2     1  UNL1       -0.2744
      9 N         140.9558  142.8592  166.9152 N.am    1  UNL1       -0.2839
     10 C         140.6845  142.2008  168.2354 C.ar    1  UNL1        0.0467
     11 C         141.0192  142.5979  169.6426 C.ar    1  UNL1        0.0144
     12 C         140.6095  141.7195  170.7873 C.ar    1  UNL1        0.0013
     13 C         139.8650  140.4440  170.5249 C.ar    1  UNL1       -0.0002
     14 C         139.5303  140.0469  169.1177 C.ar    1  UNL1       -0.0026
     15 C         139.9401  140.9253  167.9730 C.ar    1  UNL1        0.0002
     16 C         139.5624  140.6655  165.0082 C.3     1  UNL1        0.0698
     17 C         139.9721  141.5439  163.8634 C.3     1  UNL1        0.0215
     18 C         139.6374  141.1468  162.4561 C.3     1  UNL1        0.0345
     19 H         141.4292  143.7118  166.7802 H       1  UNL1        0.1549
     20 C         139.3843  138.4385  160.0828 C.3     1  UNL1        0.0001
     21 C         138.5583  139.4742  160.7865 C.3     1  UNL1        0.0017
     22 C         140.0472  142.0252  161.3114 C.2     1  UNL1        0.0900
     23 C         139.1655  143.1613  160.8848 C.2     1  UNL1        0.1744
     24 O         137.8741  143.4190  161.6030 O.2     1  UNL1       -0.4685
     25 C         137.8561  144.2886  162.8251 C.3     1  UNL1        0.2526
     26 C         141.3386  141.7675  160.5931 C.2     1  UNL1        0.3403
     27 O         141.3235  141.2457  159.1870 O.2     1  UNL1       -0.2451
     28 O         142.6451  142.0317  161.2812 O.3     1  UNL1       -0.4415
     29 C         142.8852  143.3507  161.9538 C.3     1  UNL1        0.2559
@<TRIPOS>BOND
     1    20    21    1
     2     1    21    1
     3     1     2    1
     4     2     3    1
     5     3     4    1
     6     4     5    1
     7     6     5    1
     8     6     7    1
     9     7     8    2
    10     7     9   am
    11     9    10    1
    12    10    11   ar
    13    11    12   ar
    14    12    13   ar
    15    13    14   ar
    16    14    15   ar
    17     6    16    1
    18    16    17    1
    19    17    18    1
    20    18    22    1
    21    22    23    2
    22    23    24    1
    23    24    25    1
    24    22    26    1
    25    26    27    2
    26    26    28    1
    27    28    29    1
    28    18     1    1
    29    16     3    1
    30    15     6    1
    31    15    10   ar
    32     9    19    1
@<TRIPOS>MOLECULE
*****
 29 32 0 0 0
SMALL
GASTEIGER

@<TRIPOS>ATOM
      1 C         140.9604  141.4314  162.0981 C.3     1  UNL1        0.0204
      2 C         140.2746  142.4944  162.9043 C.3     1  UNL1        0.0724
      3 N         140.4012  142.5009  164.3989 N.3     1  UNL1       -0.2731
      4 C         139.8432  143.4146  165.4495 C.3     1  UNL1        0.0729
      5 C         140.3106  142.9228  166.7873 C.3     1  UNL1        0.0314
      6 C         141.1575  141.7051  166.5635 C.3     1  UNL1        0.1037
      7 C         142.0044  140.4875  166.3397 C.2     1  UNL1        0.2303
      8 O         142.3273  139.8700  165.0114 O.2     1  UNL1       -0.2744
      9 N         142.4718  139.9957  167.6775 N.am    1  UNL1       -0.2839
     10 C         141.9138  140.9094  168.7281 C.ar    1  UNL1        0.0467
     11 C         142.0403  140.9158  170.2227 C.ar    1  UNL1        0.0144
     12 C         141.3546  141.9788  171.0289 C.ar    1  UNL1        0.0013
     13 C         140.5423  143.0353  170.3404 C.ar    1  UNL1       -0.0002
     14 C         140.4158  143.0288  168.8458 C.ar    1  UNL1       -0.0026
     15 C         141.1015  141.9659  168.0397 C.ar    1  UNL1        0.0002
     16 C         141.2135  141.4444  165.0874 C.3     1  UNL1        0.0698
     17 C         141.8992  140.3815  164.2813 C.3     1  UNL1        0.0215
     18 C         141.7727  140.3750  162.7866 C.3     1  UNL1        0.0345
     19 H         143.0443  139.2110  167.8379 H       1  UNL1        0.1549
     20 C         141.6265  142.3959  159.7795 C.3     1  UNL1        0.0001
     21 C         140.8338  141.4250  160.6035 C.3     1  UNL1        0.0017
     22 C         142.4584  139.3120  161.9805 C.2     1  UNL1        0.0900
     23 C         141.7609  138.0130  161.7043 C.2     1  UNL1        0.1744
     24 O         140.3776  137.7771  162.2344 O.2     1  UNL1       -0.4685
     25 C         139.1847  138.0657  161.3721 C.3     1  UNL1        0.2526
     26 C         143.8416  139.5480  161.4504 C.2     1  UNL1        0.3403
     27 O         144.2827  138.8803  160.1817 O.2     1  UNL1       -0.2451
     28 O         144.7839  140.4516  162.1892 O.3     1  UNL1       -0.4415
     29 C         144.8835  141.9003  161.8129 C.3     1  UNL1        0.2559
@<TRIPOS>BOND
     1    20    21    1
     2     1    21    1
     3     1     2    1
     4     2     3    1
     5     3     4    1
     6     4     5    1
     7     6     5    1
     8     6     7    1
     9     7     8    2
    10     7     9   am
    11     9    10    1
    12    10    11   ar
    13    11    12   ar
    14    12    13   ar
    15    13    14   ar
    16    14    15   ar
    17     6    16    1
    18    16    17    1
    19    17    18    1
    20    18    22    1
    21    22    23    2
    22    23    24    1
    23    24    25    1
    24    22    26    1
    25    26    27    2
    26    26    28    1
    27    28    29    1
    28    18     1    1
    29    16     3    1
    30    15     6    1
    31    15    10   ar
    32     9    19    1
@<TRIPOS>MOLECULE
*****
 29 32 0 0 0
SMALL
GASTEIGER

@<TRIPOS>ATOM
      1 C         142.1198  140.9994  161.8217 C.3     1  UNL1        0.0204
      2 C         142.6584  139.8422  162.6098 C.3     1  UNL1        0.0724
      3 N         142.5601  139.8436  164.1066 N.3     1  UNL1       -0.2731
      4 C         142.9987  138.8511  165.1422 C.3     1  UNL1        0.0729
      5 C         142.6330  139.3961  166.4909 C.3     1  UNL1        0.0314
      6 C         141.9683  140.7257  166.2889 C.3     1  UNL1        0.1037
      7 C         141.3037  142.0551  166.0869 C.2     1  UNL1        0.2303
      8 O         141.0495  142.7224  164.7677 O.2     1  UNL1       -0.2744
      9 N         140.9380  142.6002  167.4356 N.am    1  UNL1       -0.2839
     10 C         141.3766  141.6076  168.4712 C.ar    1  UNL1        0.0467
     11 C         141.2783  141.6090  169.9680 C.ar    1  UNL1        0.0144
     12 C         141.8169  140.4519  170.7560 C.ar    1  UNL1        0.0013
     13 C         142.4537  139.2934  170.0473 C.ar    1  UNL1       -0.0002
     14 C         142.5519  139.2920  168.5505 C.ar    1  UNL1       -0.0026
     15 C         142.0133  140.4491  167.7625 C.ar    1  UNL1        0.0002
     16 C         141.9233  141.0022  164.8153 C.3     1  UNL1        0.0698
     17 C         141.3848  142.1593  164.0273 C.3     1  UNL1        0.0215
     18 C         141.4830  142.1579  162.5304 C.3     1  UNL1        0.0345
     19 H         140.4890  143.4587  167.6105 H       1  UNL1        0.1549
     20 C         143.5170  141.3415  159.6583 C.3     1  UNL1        0.0001
     21 C         142.2180  140.9979  160.3250 C.3     1  UNL1        0.0017
     22 C         140.9445  143.3150  161.7424 C.2     1  UNL1        0.0900
     23 C         141.8483  144.4514  161.3657 C.2     1  UNL1        0.1744
     24 O         143.2906  144.4306  161.7771 O.2     1  UNL1       -0.4685
     25 C         143.6966  144.9721  163.1157 C.3     1  UNL1        0.2526
     26 C         139.5021  143.3358  161.3310 C.2     1  UNL1        0.3403
     27 O         138.9862  142.3214  160.3540 O.2     1  UNL1       -0.2451
     28 O         138.5757  144.3711  161.8968 O.3     1  UNL1       -0.4415
     29 C         137.9637  144.1698  163.2514 C.3     1  UNL1        0.2559
@<TRIPOS>BOND
     1    20    21    1
     2     1    21    1
     3     1     2    1
     4     2     3    1
     5     3     4    1
     6     4     5    1
     7     6     5    1
     8     6     7    1
     9     7     8    2
    10     7     9   am
    11     9    10    1
    12    10    11   ar
    13    11    12   ar
    14    12    13   ar
    15    13    14   ar
    16    14    15   ar
    17     6    16    1
    18    16    17    1
    19    17    18    1
    20    18    22    1
    21    22    23    2
    22    23    24    1
    23    24    25    1
    24    22    26    1
    25    26    27    2
    26    26    28    1
    27    28    29    1
    28    18     1    1
    29    16     3    1
    30    15     6    1
    31    15    10   ar
    32     9    19    1
@<TRIPOS>MOLECULE
*****
 29 32 0 0 0
SMALL
GASTEIGER

@<TRIPOS>ATOM
      1 C         141.3600  141.6779  162.1523 C.3     1  UNL1        0.0204
      2 C         140.5514  142.6618  162.9450 C.3     1  UNL1        0.0724
      3 N         140.5867  142.6263  164.4441 N.3     1  UNL1       -0.2731
      4 C         139.9013  143.4620  165.4843 C.3     1  UNL1        0.0729
      5 C         140.3216  142.9593  166.8336 C.3     1  UNL1        0.0314
      6 C         141.2667  141.8128  166.6274 C.3     1  UNL1        0.1037
      7 C         142.2118  140.6665  166.4212 C.2     1  UNL1        0.2303
      8 O         142.6583  140.1189  165.0980 O.2     1  UNL1       -0.2744
      9 N         142.6321  140.1638  167.7705 N.am    1  UNL1       -0.2839
     10 C         141.9467  140.9994  168.8106 C.ar    1  UNL1        0.0467
     11 C         141.9820  140.9640  170.3098 C.ar    1  UNL1        0.0144
     12 C         141.1735  141.9478  171.1024 C.ar    1  UNL1        0.0013
     13 C         140.3296  142.9670  170.3960 C.ar    1  UNL1       -0.0002
     14 C         140.2943  143.0024  168.8968 C.ar    1  UNL1       -0.0026
     15 C         141.1029  142.0187  168.1042 C.ar    1  UNL1        0.0002
     16 C         141.4305  141.6071  165.1506 C.3     1  UNL1        0.0698
     17 C         142.2391  140.6233  164.3579 C.3     1  UNL1        0.0215
     18 C         142.2038  140.6587  162.8587 C.3     1  UNL1        0.0345
     19 H         143.2494  139.4165  167.9431 H       1  UNL1        0.1549
     20 C         140.2296  141.0055  159.9117 C.3     1  UNL1        0.0001
     21 C         141.3247  141.7134  160.6531 C.3     1  UNL1        0.0017
     22 C         143.0124  139.6750  162.0661 C.2     1  UNL1        0.0900
     23 C         144.4344  139.9896  161.7068 C.2     1  UNL1        0.1744
     24 O         145.0478  141.2880  162.1403 O.2     1  UNL1       -0.4685
     25 C         145.7179  141.3912  163.4783 C.3     1  UNL1        0.2526
     26 C         142.3990  138.3765  161.6326 C.2     1  UNL1        0.3403
     27 O         143.0945  137.5211  160.6156 O.2     1  UNL1       -0.2451
     28 O         141.0901  137.9336  162.2162 O.3     1  UNL1       -0.4415
     29 C         141.0658  137.1519  163.4962 C.3     1  UNL1        0.2559
@<TRIPOS>BOND
     1    20    21    1
     2     1    21    1
     3     1     2    1
     4     2     3    1
     5     3     4    1
     6     4     5    1
     7     6     5    1
     8     6     7    1
     9     7     8    2
    10     7     9   am
    11     9    10    1
    12    10    11   ar
    13    11    12   ar
    14    12    13   ar
    15    13    14   ar
    16    14    15   ar
    17     6    16    1
    18    16    17    1
    19    17    18    1
    20    18    22    1
    21    22    23    2
    22    23    24    1
    23    24    25    1
    24    22    26    1
    25    26    27    2
    26    26    28    1
    27    28    29    1
    28    18     1    1
    29    16     3    1
    30    15     6    1
    31    15    10   ar
    32     9    19    1
@<TRIPOS>MOLECULE
*****
 29 32 0 0 0
SMALL
GASTEIGER

@<TRIPOS>ATOM
      1 C         143.5581  139.7455  162.7286 C.3     1  UNL1        0.0204
      2 C         143.7864  138.9014  163.9475 C.3     1  UNL1        0.0724
      3 N         143.2472  139.3415  165.2762 N.3     1  UNL1       -0.2731
      4 C         143.3136  138.7228  166.6411 C.3     1  UNL1        0.0729
      5 C         142.5872  139.6246  167.5946 C.3     1  UNL1        0.0314
      6 C         142.0719  140.8006  166.8191 C.3     1  UNL1        0.1037
      7 C         141.5566  141.9766  166.0435 C.2     1  UNL1        0.2303
      8 O         141.7361  142.2099  164.5727 O.2     1  UNL1       -0.2744
      9 N         140.8302  142.8784  166.9970 N.am    1  UNL1       -0.2839
     10 C         140.8966  142.2597  168.3619 C.ar    1  UNL1        0.0467
     11 C         140.3575  142.6998  169.6907 C.ar    1  UNL1        0.0144
     12 C         140.5857  141.8557  170.9094 C.ar    1  UNL1        0.0013
     13 C         141.3531  140.5716  170.7994 C.ar    1  UNL1       -0.0002
     14 C         141.8923  140.1315  169.4707 C.ar    1  UNL1       -0.0026
     15 C         141.6640  140.9756  168.2519 C.ar    1  UNL1        0.0002
     16 C         142.4798  140.6256  165.3862 C.3     1  UNL1        0.0698
     17 C         142.2516  141.4697  164.1675 C.3     1  UNL1        0.0215
     18 C         142.7907  141.0297  162.8386 C.3     1  UNL1        0.0345
     19 H         140.3876  143.7273  166.7674 H       1  UNL1        0.1549
     20 C         143.4832  138.1343  160.6919 C.3     1  UNL1        0.0001
     21 C         144.0973  139.3055  161.3999 C.3     1  UNL1        0.0017
     22 C         142.5625  141.8737  161.6199 C.2     1  UNL1        0.0900
     23 C         141.3528  141.6429  160.7634 C.2     1  UNL1        0.1744
     24 O         140.3714  140.5679  161.1258 O.2     1  UNL1       -0.4685
     25 C         139.1541  140.9054  161.9346 C.3     1  UNL1        0.2526
     26 C         143.5439  142.9487  161.2575 C.2     1  UNL1        0.3403
     27 O         144.7451  142.6171  160.4226 O.2     1  UNL1       -0.2451
     28 O         143.3241  144.3553  161.7301 O.3     1  UNL1       -0.4415
     29 C         143.7258  144.7508  163.1201 C.3     1  UNL1        0.2559
@<TRIPOS>BOND
     1    20    21    1
     2     1    21    1
     3     1     2    1
     4     2     3    1
     5     3     4    1
     6     4     5    1
     7     6     5    1
     8     6     7    1
     9     7     8    2
    10     7     9   am
    11     9    10    1
    12    10    11   ar
    13    11    12   ar
    14    12    13   ar
    15    13    14   ar
    16    14    15   ar
    17     6    16    1
    18    16    17    1
    19    17    18    1
    20    18    22    1
    21    22    23    2
    22    23    24    1
    23    24    25    1
    24    22    26    1
    25    26    27    2
    26    26    28    1
    27    28    29    1
    28    18     1    1
    29    16     3    1
    30    15     6    1
    31    15    10   ar
    32     9    19    1
@<TRIPOS>MOLECULE
*****
 29 32 0 0 0
SMALL
GASTEIGER

@<TRIPOS>ATOM
      1 C         141.8535  142.1461  161.8908 C.3     1  UNL1        0.0204
      2 C         143.0457  142.5328  162.7150 C.3     1  UNL1        0.0724
      3 N         142.9744  142.4713  164.2120 N.3     1  UNL1       -0.2731
      4 C         143.9803  142.7883  165.2786 C.3     1  UNL1        0.0729
      5 C         143.3386  142.5360  166.6107 C.3     1  UNL1        0.0314
      6 C         141.9359  142.0631  166.3674 C.3     1  UNL1        0.1037
      7 C         140.5334  141.5901  166.1241 C.2     1  UNL1        0.2303
      8 O         139.8863  141.4024  164.7839 O.2     1  UNL1       -0.2744
      9 N         139.8917  141.3379  167.4562 N.am    1  UNL1       -0.2839
     10 C         140.8976  141.6549  168.5228 C.ar    1  UNL1        0.0467
     11 C         140.8263  141.5934  170.0198 C.ar    1  UNL1        0.0144
     12 C         142.0185  141.9800  170.8439 C.ar    1  UNL1        0.0013
     13 C         143.2819  142.4282  170.1710 C.ar    1  UNL1       -0.0002
     14 C         143.3532  142.4898  168.6740 C.ar    1  UNL1       -0.0026
     15 C         142.1610  142.1031  167.8499 C.ar    1  UNL1        0.0002
     16 C         141.7109  142.0231  164.8849 C.3     1  UNL1        0.0698
     17 C         140.5188  141.6364  164.0608 C.3     1  UNL1        0.0215
     18 C         140.5900  141.6979  162.5637 C.3     1  UNL1        0.0345
     19 H         138.9718  141.0200  167.6044 H       1  UNL1        0.1549
     20 C         142.8834  143.1489  159.7266 C.3     1  UNL1        0.0001
     21 C         141.9248  142.2076  160.3938 C.3     1  UNL1        0.0017
     22 C         139.3979  141.3112  161.7396 C.2     1  UNL1        0.0900
     23 C         139.2368  139.8951  161.2720 C.2     1  UNL1        0.1744
     24 O         140.2679  138.8656  161.6285 O.2     1  UNL1       -0.4685
     25 C         141.2401  138.3874  160.5912 C.3     1  UNL1        0.2526
     26 C         138.3667  142.3407  161.3831 C.2     1  UNL1        0.3403
     27 O         138.2948  142.8770  159.9841 O.2     1  UNL1       -0.2451
     28 O         137.4075  142.8338  162.4256 O.3     1  UNL1       -0.4415
     29 C         137.7281  144.0677  163.2161 C.3     1  UNL1        0.2559
@<TRIPOS>BOND
     1    20    21    1
     2     1    21    1
     3     1     2    1
     4     2     3    1
     5     3     4    1
     6     4     5    1
     7     6     5    1
     8     6     7    1
     9     7     8    2
    10     7     9   am
    11     9    10    1
    12    10    11   ar
    13    11    12   ar
    14    12    13   ar
    15    13    14   ar
    16    14    15   ar
    17     6    16    1
    18    16    17    1
    19    17    18    1
    20    18    22    1
    21    22    23    2
    22    23    24    1
    23    24    25    1
    24    22    26    1
    25    26    27    2
    26    26    28    1
    27    28    29    1
    28    18     1    1
    29    16     3    1
    30    15     6    1
    31    15    10   ar
    32     9    19    1
