@<TRIPOS>MOLECULE
*****
 31 35 0 0 0
SMALL
GASTEIGER

@<TRIPOS>ATOM
      1 C         142.3943  143.3428  158.6577 C.2     1  UNL1        0.0596
      2 C         141.8902  142.4406  159.7450 C.2     1  UNL1        0.0324
      3 C         140.7963  142.9068  160.6594 C.2     1  UNL1        0.0889
      4 N         140.1012  142.2446  161.8118 N.2     1  UNL1       -0.2236
      5 C         139.0818  143.2037  162.3512 C.2     1  UNL1        0.1859
      6 N         139.1469  144.4586  161.5322 N.2     1  UNL1       -0.2387
      7 C         140.2066  144.2751  160.4865 C.3     1  UNL1        0.1679
      8 C         140.7107  145.1773  159.3993 C.2     1  UNL1        0.0164
      9 C         141.8046  144.7110  158.4850 C.2     1  UNL1        0.0690
     10 CL        142.3087  145.6132  157.3977 Cl      1  UNL1       -0.0812
     11 N         145.6759  141.9441  155.9145 N.3     1  UNL1       -0.2698
     12 C         144.2670  142.0426  155.4092 C.3     1  UNL1        0.0938
     13 C         143.1732  142.5089  156.3236 C.3     1  UNL1        0.1081
     14 N         143.4882  142.8765  157.7433 N.pl3   1  UNL1       -0.3040
     15 C         144.8971  142.7780  158.2486 C.3     1  UNL1        0.1081
     16 C         145.9909  142.3118  157.3342 C.3     1  UNL1        0.0938
     17 C         148.2048  141.7230  155.3617 C.3     1  UNL1        0.0188
     18 C         146.7698  141.4779  155.0002 C.3     1  UNL1        0.0722
     19 S         138.1592  142.9520  163.5069 S.3     1  UNL1       -0.0777
     20 C         138.3003  141.6997  164.3204 C.3     1  UNL1        0.0461
     21 C         137.3707  141.2111  163.2494 C.3     1  UNL1        0.0113
     22 C         139.1809  142.6232  165.1089 C.3     1  UNL1        0.0109
     23 C         139.8799  142.1247  166.3390 C.3     1  UNL1        0.0101
     24 C         139.6982  140.7027  166.7805 C.3     1  UNL1        0.0783
     25 C         138.8176  139.7793  165.9920 C.3     1  UNL1        0.0101
     26 C         138.1186  140.2777  164.7619 C.3     1  UNL1        0.0109
     27 C         140.3971  140.2042  168.0105 C.ar    1  UNL1        0.2262
     28 N         139.7523  139.9078  169.3320 N.ar    1  UNL1       -0.1113
     29 N         140.8203  139.4350  170.2732 N.ar    1  UNL1       -0.1023
     30 C         142.1252  139.4393  169.5335 C.ar    1  UNL1        0.3056
     31 O         141.8637  139.9146  168.1350 O.2     1  UNL1       -0.4161
@<TRIPOS>BOND
     1    17    18    1
     2    18    11    1
     3    11    12    1
     4    12    13    1
     5    13    14    1
     6    14     1    1
     7     1     2    2
     8     2     3    1
     9     3     4    2
    10     4     5    1
    11     5    19    1
    12    19    20    1
    13    20    21    1
    14    20    22    1
    15    22    23    1
    16    23    24    1
    17    24    27    1
    18    27    28   ar
    19    28    29   ar
    20    29    30   ar
    21    30    31   ar
    22    24    25    1
    23    25    26    1
    24     5     6    2
    25     6     7    1
    26     7     8    1
    27     8     9    2
    28     9    10    1
    29    14    15    1
    30    15    16    1
    31    16    11    1
    32     9     1    1
    33     7     3    1
    34    26    20    1
    35    31    27   ar
@<TRIPOS>MOLECULE
*****
 31 35 0 0 0
SMALL
GASTEIGER

@<TRIPOS>ATOM
      1 C         143.3590  140.8828  159.3820 C.2     1  UNL1        0.0596
      2 C         143.6869  139.8965  160.4636 C.2     1  UNL1        0.0324
      3 C         142.6548  139.5409  161.4922 C.2     1  UNL1        0.0889
      4 N         142.6883  138.6092  162.6673 N.2     1  UNL1       -0.2236
      5 C         141.3490  138.6640  163.3406 C.2     1  UNL1        0.1859
      6 N         140.4878  139.6295  162.5816 N.2     1  UNL1       -0.2387
      7 C         141.2948  140.1715  161.4393 C.3     1  UNL1        0.1679
      8 C         140.9669  141.1577  160.3576 C.2     1  UNL1        0.0164
      9 C         141.9991  141.5133  159.3290 C.2     1  UNL1        0.0690
     10 CL        141.6712  142.4996  158.2474 Cl      1  UNL1       -0.0812
     11 N         146.4556  141.9498  156.2960 N.3     1  UNL1       -0.2698
     12 C         146.3110  142.7852  157.5334 C.3     1  UNL1        0.0938
     13 C         145.2789  142.4295  158.5620 C.3     1  UNL1        0.1081
     14 N         144.3913  141.2385  158.3532 N.pl3   1  UNL1       -0.3040
     15 C         144.5358  140.4031  157.1158 C.3     1  UNL1        0.1081
     16 C         145.5680  140.7588  156.0872 C.3     1  UNL1        0.0938
     17 C         148.8761  141.7475  155.3739 C.3     1  UNL1        0.0188
     18 C         147.4877  142.3054  155.2673 C.3     1  UNL1        0.0722
     19 S         140.9423  137.8893  164.5590 S.3     1  UNL1       -0.0777
     20 C         140.0234  138.5090  165.5697 C.3     1  UNL1        0.0461
     21 C         139.0625  137.5934  164.8708 C.3     1  UNL1        0.0113
     22 C         141.3035  139.2093  165.9175 C.3     1  UNL1        0.0109
     23 C         141.3309  140.2114  167.0334 C.3     1  UNL1        0.0101
     24 C         140.0782  140.5131  167.8014 C.3     1  UNL1        0.0783
     25 C         138.7982  139.8128  167.4535 C.3     1  UNL1        0.0101
     26 C         138.7708  138.8107  166.3376 C.3     1  UNL1        0.0109
     27 C         140.1057  141.5152  168.9172 C.ar    1  UNL1        0.2262
     28 N         139.7696  141.2445  170.3538 N.ar    1  UNL1       -0.1113
     29 N         139.9302  142.5259  171.1168 N.ar    1  UNL1       -0.1023
     30 C         140.3657  143.5885  170.1518 C.ar    1  UNL1        0.3056
     31 O         140.4741  142.9639  168.7924 O.2     1  UNL1       -0.4161
@<TRIPOS>BOND
     1    17    18    1
     2    18    11    1
     3    11    12    1
     4    12    13    1
     5    13    14    1
     6    14     1    1
     7     1     2    2
     8     2     3    1
     9     3     4    2
    10     4     5    1
    11     5    19    1
    12    19    20    1
    13    20    21    1
    14    20    22    1
    15    22    23    1
    16    23    24    1
    17    24    27    1
    18    27    28   ar
    19    28    29   ar
    20    29    30   ar
    21    30    31   ar
    22    24    25    1
    23    25    26    1
    24     5     6    2
    25     6     7    1
    26     7     8    1
    27     8     9    2
    28     9    10    1
    29    14    15    1
    30    15    16    1
    31    16    11    1
    32     9     1    1
    33     7     3    1
    34    26    20    1
    35    31    27   ar
@<TRIPOS>MOLECULE
*****
 31 35 0 0 0
SMALL
GASTEIGER

@<TRIPOS>ATOM
      1 C         141.2187  142.5617  159.3956 C.2     1  UNL1        0.0596
      2 C         140.2469  141.8447  160.2853 C.2     1  UNL1        0.0324
      3 C         140.7441  140.8461  161.2880 C.2     1  UNL1        0.0889
      4 N         140.0295  139.9911  162.2922 N.2     1  UNL1       -0.2236
      5 C         141.0569  139.1810  163.0258 C.2     1  UNL1        0.1859
      6 N         142.4064  139.5353  162.4751 N.2     1  UNL1       -0.2387
      7 C         142.2131  140.5644  161.4010 C.3     1  UNL1        0.1679
      8 C         143.1848  141.2814  160.5113 C.2     1  UNL1        0.0164
      9 C         142.6876  142.2801  159.5086 C.2     1  UNL1        0.0690
     10 CL        143.6595  142.9971  158.6190 Cl      1  UNL1       -0.0812
     11 N         139.7271  145.5578  156.3874 N.3     1  UNL1       -0.2698
     12 C         139.6789  144.0918  156.0732 C.3     1  UNL1        0.0938
     13 C         140.1761  143.0932  157.0759 C.3     1  UNL1        0.1081
     14 N         140.7215  143.5605  158.3928 N.pl3   1  UNL1       -0.3040
     15 C         140.7697  145.0264  158.7070 C.3     1  UNL1        0.1081
     16 C         140.2725  146.0250  157.7043 C.3     1  UNL1        0.0938
     17 C         138.9239  147.9610  155.8134 C.3     1  UNL1        0.0188
     18 C         139.2299  146.5565  155.3847 C.3     1  UNL1        0.0722
     19 S         140.7829  138.1904  164.1184 S.3     1  UNL1       -0.0777
     20 C         139.9166  138.5762  165.2806 C.3     1  UNL1        0.0461
     21 C         138.9177  137.8284  164.4481 C.3     1  UNL1        0.0113
     22 C         141.2164  139.1900  165.7095 C.3     1  UNL1        0.0109
     23 C         141.3030  139.9299  167.0114 C.3     1  UNL1        0.0101
     24 C         140.0897  140.0560  167.8845 C.3     1  UNL1        0.0783
     25 C         138.7900  139.4422  167.4556 C.3     1  UNL1        0.0101
     26 C         138.7034  138.7023  166.1536 C.3     1  UNL1        0.0109
     27 C         140.1763  140.7958  169.1865 C.ar    1  UNL1        0.2262
     28 N         140.4391  140.1859  170.5314 N.ar    1  UNL1       -0.1113
     29 N         140.4405  141.2887  171.5482 N.ar    1  UNL1       -0.1023
     30 C         140.1786  142.5802  170.8317 C.ar    1  UNL1        0.3056
     31 O         140.0153  142.2756  169.3720 O.2     1  UNL1       -0.4161
@<TRIPOS>BOND
     1    17    18    1
     2    18    11    1
     3    11    12    1
     4    12    13    1
     5    13    14    1
     6    14     1    1
     7     1     2    2
     8     2     3    1
     9     3     4    2
    10     4     5    1
    11     5    19    1
    12    19    20    1
    13    20    21    1
    14    20    22    1
    15    22    23    1
    16    23    24    1
    17    24    27    1
    18    27    28   ar
    19    28    29   ar
    20    29    30   ar
    21    30    31   ar
    22    24    25    1
    23    25    26    1
    24     5     6    2
    25     6     7    1
    26     7     8    1
    27     8     9    2
    28     9    10    1
    29    14    15    1
    30    15    16    1
    31    16    11    1
    32     9     1    1
    33     7     3    1
    34    26    20    1
    35    31    27   ar
@<TRIPOS>MOLECULE
*****
 31 35 0 0 0
SMALL
GASTEIGER

@<TRIPOS>ATOM
      1 C         142.0950  142.4205  159.2305 C.2     1  UNL1        0.0596
      2 C         141.8411  141.5154  160.3996 C.2     1  UNL1        0.0324
      3 C         140.7201  141.8148  161.3502 C.2     1  UNL1        0.0889
      4 N         140.2332  141.1100  162.5815 N.2     1  UNL1       -0.2236
      5 C         139.0651  141.8788  163.1241 C.2     1  UNL1        0.1859
      6 N         138.8301  143.0587  162.2282 N.2     1  UNL1       -0.2387
      7 C         139.8530  143.0191  161.1318 C.3     1  UNL1        0.1679
      8 C         140.1068  143.9241  159.9628 C.2     1  UNL1        0.0164
      9 C         141.2279  143.6247  159.0122 C.2     1  UNL1        0.0690
     10 CL        141.4817  144.5298  157.8431 Cl      1  UNL1       -0.0812
     11 N         145.4581  141.5224  156.3786 N.3     1  UNL1       -0.2698
     12 C         144.0796  141.0002  156.1009 C.3     1  UNL1        0.0938
     13 C         142.9586  141.2995  157.0515 C.3     1  UNL1        0.1081
     14 N         143.2161  142.1211  158.2798 N.pl3   1  UNL1       -0.3040
     15 C         144.5945  142.6434  158.5575 C.3     1  UNL1        0.1081
     16 C         145.7155  142.3440  157.6069 C.3     1  UNL1        0.0938
     17 C         147.8837  141.9529  155.5532 C.3     1  UNL1        0.0188
     18 C         146.5791  141.2231  155.4280 C.3     1  UNL1        0.0722
     19 S         138.2712  141.5292  164.3479 S.3     1  UNL1       -0.0777
     20 C         138.9689  141.0203  165.5744 C.3     1  UNL1        0.0461
     21 C         138.1124  139.8323  165.2502 C.3     1  UNL1        0.0113
     22 C         139.5832  142.3850  165.4726 C.3     1  UNL1        0.0109
     23 C         140.5977  142.8282  166.4847 C.3     1  UNL1        0.0101
     24 C         140.9980  141.9067  167.5986 C.3     1  UNL1        0.0783
     25 C         140.3837  140.5421  167.7003 C.3     1  UNL1        0.0101
     26 C         139.3691  140.0988  166.6883 C.3     1  UNL1        0.0109
     27 C         142.0125  142.3499  168.6107 C.ar    1  UNL1        0.2262
     28 N         143.4915  142.4605  168.3865 N.ar    1  UNL1       -0.1113
     29 N         144.1191  142.9393  169.6619 N.ar    1  UNL1       -0.1023
     30 C         143.0280  143.1247  170.6744 C.ar    1  UNL1        0.3056
     31 O         141.7260  142.7605  170.0248 O.2     1  UNL1       -0.4161
@<TRIPOS>BOND
     1    17    18    1
     2    18    11    1
     3    11    12    1
     4    12    13    1
     5    13    14    1
     6    14     1    1
     7     1     2    2
     8     2     3    1
     9     3     4    2
    10     4     5    1
    11     5    19    1
    12    19    20    1
    13    20    21    1
    14    20    22    1
    15    22    23    1
    16    23    24    1
    17    24    27    1
    18    27    28   ar
    19    28    29   ar
    20    29    30   ar
    21    30    31   ar
    22    24    25    1
    23    25    26    1
    24     5     6    2
    25     6     7    1
    26     7     8    1
    27     8     9    2
    28     9    10    1
    29    14    15    1
    30    15    16    1
    31    16    11    1
    32     9     1    1
    33     7     3    1
    34    26    20    1
    35    31    27   ar
@<TRIPOS>MOLECULE
*****
 31 35 0 0 0
SMALL
GASTEIGER

@<TRIPOS>ATOM
      1 C         140.7337  139.0295  158.8610 C.2     1  UNL1        0.0596
      2 C         140.1266  138.5877  160.1596 C.2     1  UNL1        0.0324
      3 C         139.7040  139.6075  161.1752 C.2     1  UNL1        0.0889
      4 N         139.0816  139.4732  162.5334 N.2     1  UNL1       -0.2236
      5 C         138.8815  140.8517  163.0898 C.2     1  UNL1        0.1859
      6 N         139.3802  141.8380  162.0755 N.2     1  UNL1       -0.2387
      7 C         139.8886  141.0689  160.8922 C.3     1  UNL1        0.1679
      8 C         140.4957  141.5106  159.5937 C.2     1  UNL1        0.0164
      9 C         140.9182  140.4908  158.5780 C.2     1  UNL1        0.0690
     10 CL        141.5253  140.9326  157.2794 Cl      1  UNL1       -0.0812
     11 N         142.0013  135.9701  155.8140 N.3     1  UNL1       -0.2698
     12 C         140.6257  136.5648  155.7522 C.3     1  UNL1        0.0938
     13 C         140.2031  137.5846  156.7678 C.3     1  UNL1        0.1081
     14 N         141.1563  138.0096  157.8453 N.pl3   1  UNL1       -0.3040
     15 C         142.5319  137.4149  157.9071 C.3     1  UNL1        0.1081
     16 C         142.9545  136.3951  156.8915 C.3     1  UNL1        0.0938
     17 C         141.9298  133.5379  154.9033 C.3     1  UNL1        0.0188
     18 C         142.4239  134.9503  154.7985 C.3     1  UNL1        0.0722
     19 S         138.2870  141.1855  164.4259 S.3     1  UNL1       -0.0777
     20 C         138.9833  140.7591  165.6842 C.3     1  UNL1        0.0461
     21 C         138.1451  139.5424  165.4252 C.3     1  UNL1        0.0113
     22 C         139.5797  142.1239  165.5062 C.3     1  UNL1        0.0109
     23 C         140.5813  142.6397  166.4966 C.3     1  UNL1        0.0101
     24 C         140.9864  141.7907  167.6650 C.3     1  UNL1        0.0783
     25 C         140.3900  140.4260  167.8429 C.3     1  UNL1        0.0101
     26 C         139.3884  139.9101  166.8526 C.3     1  UNL1        0.0109
     27 C         141.9880  142.3065  168.6553 C.ar    1  UNL1        0.2262
     28 N         143.4750  142.3515  168.4635 N.ar    1  UNL1       -0.1113
     29 N         144.0844  142.9407  169.7010 N.ar    1  UNL1       -0.1023
     30 C         142.9740  143.2600  170.6577 C.ar    1  UNL1        0.3056
     31 O         141.6783  142.8680  170.0114 O.2     1  UNL1       -0.4161
@<TRIPOS>BOND
     1    17    18    1
     2    18    11    1
     3    11    12    1
     4    12    13    1
     5    13    14    1
     6    14     1    1
     7     1     2    2
     8     2     3    1
     9     3     4    2
    10     4     5    1
    11     5    19    1
    12    19    20    1
    13    20    21    1
    14    20    22    1
    15    22    23    1
    16    23    24    1
    17    24    27    1
    18    27    28   ar
    19    28    29   ar
    20    29    30   ar
    21    30    31   ar
    22    24    25    1
    23    25    26    1
    24     5     6    2
    25     6     7    1
    26     7     8    1
    27     8     9    2
    28     9    10    1
    29    14    15    1
    30    15    16    1
    31    16    11    1
    32     9     1    1
    33     7     3    1
    34    26    20    1
    35    31    27   ar
@<TRIPOS>MOLECULE
*****
 31 35 0 0 0
SMALL
GASTEIGER

@<TRIPOS>ATOM
      1 C         142.8831  140.4225  158.5265 C.2     1  UNL1        0.0596
      2 C         141.9914  140.7142  159.6970 C.2     1  UNL1        0.0324
      3 C         142.3454  141.8139  160.6537 C.2     1  UNL1        0.0889
      4 N         141.6653  142.3281  161.8878 N.2     1  UNL1       -0.2236
      5 C         142.4905  143.4540  162.4368 C.2     1  UNL1        0.1859
      6 N         143.6807  143.6356  161.5420 N.2     1  UNL1       -0.2387
      7 C         143.5910  142.6219  160.4400 C.3     1  UNL1        0.1679
      8 C         144.4826  142.3302  159.2696 C.2     1  UNL1        0.0164
      9 C         144.1286  141.2305  158.3128 C.2     1  UNL1        0.0690
     10 CL        145.0203  140.9388  157.1424 Cl      1  UNL1       -0.0812
     11 N         141.8212  137.1234  155.6562 N.3     1  UNL1       -0.2698
     12 C         141.5232  138.5502  155.3023 C.3     1  UNL1        0.0938
     13 C         141.8771  139.6499  156.2591 C.3     1  UNL1        0.1081
     14 N         142.5291  139.3227  157.5697 N.pl3   1  UNL1       -0.3040
     15 C         142.8271  137.8959  157.9237 C.3     1  UNL1        0.1081
     16 C         142.4732  136.7962  156.9669 C.3     1  UNL1        0.0938
     17 C         141.4398  134.5998  155.1706 C.3     1  UNL1        0.0188
     18 C         141.4672  136.0236  154.6996 C.3     1  UNL1        0.0722
     19 S         142.1801  144.2573  163.6649 S.3     1  UNL1       -0.0777
     20 C         141.5132  143.6047  164.8393 C.3     1  UNL1        0.0461
     21 C         140.3464  144.3444  164.2552 C.3     1  UNL1        0.0113
     22 C         142.9117  143.0915  165.0156 C.3     1  UNL1        0.0109
     23 C         143.2381  142.1827  166.1634 C.3     1  UNL1        0.0101
     24 C         142.1659  141.7869  167.1350 C.3     1  UNL1        0.0783
     25 C         140.7675  142.3000  166.9587 C.3     1  UNL1        0.0101
     26 C         140.4411  143.2089  165.8109 C.3     1  UNL1        0.0109
     27 C         142.4922  140.8780  168.2828 C.ar    1  UNL1        0.2262
     28 N         142.7592  139.4047  168.1926 N.ar    1  UNL1       -0.1113
     29 N         143.0409  138.8991  169.5764 N.ar    1  UNL1       -0.1023
     30 C         142.9480  140.0599  170.5219 C.ar    1  UNL1        0.3056
     31 O         142.6090  141.2830  169.7224 O.2     1  UNL1       -0.4161
@<TRIPOS>BOND
     1    17    18    1
     2    18    11    1
     3    11    12    1
     4    12    13    1
     5    13    14    1
     6    14     1    1
     7     1     2    2
     8     2     3    1
     9     3     4    2
    10     4     5    1
    11     5    19    1
    12    19    20    1
    13    20    21    1
    14    20    22    1
    15    22    23    1
    16    23    24    1
    17    24    27    1
    18    27    28   ar
    19    28    29   ar
    20    29    30   ar
    21    30    31   ar
    22    24    25    1
    23    25    26    1
    24     5     6    2
    25     6     7    1
    26     7     8    1
    27     8     9    2
    28     9    10    1
    29    14    15    1
    30    15    16    1
    31    16    11    1
    32     9     1    1
    33     7     3    1
    34    26    20    1
    35    31    27   ar
@<TRIPOS>MOLECULE
*****
 31 35 0 0 0
SMALL
GASTEIGER

@<TRIPOS>ATOM
      1 C         139.3021  140.0226  158.0562 C.2     1  UNL1        0.0596
      2 C         138.2136  140.0822  159.0866 C.2     1  UNL1        0.0324
      3 C         138.4161  140.8702  160.3467 C.2     1  UNL1        0.0889
      4 N         137.5306  141.1105  161.5334 N.2     1  UNL1       -0.2236
      5 C         138.2744  141.9875  162.4966 C.2     1  UNL1        0.1859
      6 N         139.6195  142.2891  161.9052 N.2     1  UNL1       -0.2387
      7 C         139.7071  141.5986  160.5765 C.3     1  UNL1        0.1679
      8 C         140.7956  141.5390  159.5461 C.2     1  UNL1        0.0164
      9 C         140.5930  140.7509  158.2860 C.2     1  UNL1        0.0690
     10 CL        141.6816  140.6913  157.2556 Cl      1  UNL1       -0.0812
     11 N         138.6946  137.6585  154.2757 N.3     1  UNL1       -0.2698
     12 C         138.2114  139.0760  154.3596 C.3     1  UNL1        0.0938
     13 C         138.4139  139.8640  155.6197 C.3     1  UNL1        0.1081
     14 N         139.0996  139.2345  156.7960 N.pl3   1  UNL1       -0.3040
     15 C         139.5828  137.8169  156.7120 C.3     1  UNL1        0.1081
     16 C         139.3803  137.0289  155.4519 C.3     1  UNL1        0.0938
     17 C         137.1486  136.8547  152.3485 C.3     1  UNL1        0.0188
     18 C         138.4921  136.8704  153.0156 C.3     1  UNL1        0.0722
     19 S         137.7629  142.4769  163.8190 S.3     1  UNL1       -0.0777
     20 C         138.7261  142.8020  164.9220 C.3     1  UNL1        0.0461
     21 C         138.4499  144.1817  164.4023 C.3     1  UNL1        0.0113
     22 C         138.6679  141.3093  165.0586 C.3     1  UNL1        0.0109
     23 C         139.4769  140.6210  166.1177 C.3     1  UNL1        0.0101
     24 C         140.3442  141.4253  167.0402 C.3     1  UNL1        0.0783
     25 C         140.4024  142.9179  166.9035 C.3     1  UNL1        0.0101
     26 C         139.5934  143.6063  165.8444 C.3     1  UNL1        0.0109
     27 C         141.1532  140.7369  168.0993 C.ar    1  UNL1        0.2262
     28 N         142.6397  140.8332  168.2751 N.ar    1  UNL1       -0.1113
     29 N         143.0229  139.9872  169.4529 N.ar    1  UNL1       -0.1023
     30 C         141.7732  139.3680  170.0051 C.ar    1  UNL1        0.3056
     31 O         140.6176  139.8314  169.1685 O.2     1  UNL1       -0.4161
@<TRIPOS>BOND
     1    17    18    1
     2    18    11    1
     3    11    12    1
     4    12    13    1
     5    13    14    1
     6    14     1    1
     7     1     2    2
     8     2     3    1
     9     3     4    2
    10     4     5    1
    11     5    19    1
    12    19    20    1
    13    20    21    1
    14    20    22    1
    15    22    23    1
    16    23    24    1
    17    24    27    1
    18    27    28   ar
    19    28    29   ar
    20    29    30   ar
    21    30    31   ar
    22    24    25    1
    23    25    26    1
    24     5     6    2
    25     6     7    1
    26     7     8    1
    27     8     9    2
    28     9    10    1
    29    14    15    1
    30    15    16    1
    31    16    11    1
    32     9     1    1
    33     7     3    1
    34    26    20    1
    35    31    27   ar
@<TRIPOS>MOLECULE
*****
 31 35 0 0 0
SMALL
GASTEIGER

@<TRIPOS>ATOM
      1 C         140.4886  143.7495  157.7190 C.2     1  UNL1        0.0596
      2 C         139.1905  143.1122  158.1178 C.2     1  UNL1        0.0324
      3 C         139.1492  142.1514  159.2689 C.2     1  UNL1        0.0889
      4 N         138.0255  141.3739  159.8875 N.2     1  UNL1       -0.2236
      5 C         138.5877  140.5698  161.0221 C.2     1  UNL1        0.1859
      6 N         140.0589  140.8504  161.1047 N.2     1  UNL1       -0.2387
      7 C         140.4060  141.8279  160.0212 C.3     1  UNL1        0.1679
      8 C         141.7040  142.4651  159.6223 C.2     1  UNL1        0.0164
      9 C         141.7452  143.4259  158.4712 C.2     1  UNL1        0.0690
     10 CL        143.0433  144.0632  158.0724 Cl      1  UNL1       -0.0812
     11 N         140.6124  146.6321  154.2656 N.3     1  UNL1       -0.2698
     12 C         140.1483  147.0968  155.6141 C.3     1  UNL1        0.0938
     13 C         140.1071  146.1360  156.7652 C.3     1  UNL1        0.1081
     14 N         140.5299  144.7104  156.5678 N.pl3   1  UNL1       -0.3040
     15 C         140.9939  144.2457  155.2192 C.3     1  UNL1        0.1081
     16 C         141.0352  145.2065  154.0681 C.3     1  UNL1        0.0938
     17 C         140.0156  148.9444  153.2423 C.3     1  UNL1        0.0188
     18 C         140.6537  147.5928  153.1144 C.3     1  UNL1        0.0722
     19 S         137.8145  139.6472  161.9169 S.3     1  UNL1       -0.0777
     20 C         138.4999  138.9665  163.0645 C.3     1  UNL1        0.0461
     21 C         138.7283  137.9504  161.9850 C.3     1  UNL1        0.0113
     22 C         138.0334  140.2190  163.7455 C.3     1  UNL1        0.0109
     23 C         138.3316  140.4379  165.1992 C.3     1  UNL1        0.0101
     24 C         139.0964  139.4043  165.9719 C.3     1  UNL1        0.0783
     25 C         139.5628  138.1520  165.2908 C.3     1  UNL1        0.0101
     26 C         139.2646  137.9330  163.8372 C.3     1  UNL1        0.0109
     27 C         139.3946  139.6233  167.4255 C.ar    1  UNL1        0.2262
     28 N         138.4094  139.5245  168.5524 N.ar    1  UNL1       -0.1113
     29 N         139.1363  139.8196  169.8308 N.ar    1  UNL1       -0.1023
     30 C         140.5708  140.1009  169.4941 C.ar    1  UNL1        0.3056
     31 O         140.7304  139.9796  168.0076 O.2     1  UNL1       -0.4161
@<TRIPOS>BOND
     1    17    18    1
     2    18    11    1
     3    11    12    1
     4    12    13    1
     5    13    14    1
     6    14     1    1
     7     1     2    2
     8     2     3    1
     9     3     4    2
    10     4     5    1
    11     5    19    1
    12    19    20    1
    13    20    21    1
    14    20    22    1
    15    22    23    1
    16    23    24    1
    17    24    27    1
    18    27    28   ar
    19    28    29   ar
    20    29    30   ar
    21    30    31   ar
    22    24    25    1
    23    25    26    1
    24     5     6    2
    25     6     7    1
    26     7     8    1
    27     8     9    2
    28     9    10    1
    29    14    15    1
    30    15    16    1
    31    16    11    1
    32     9     1    1
    33     7     3    1
    34    26    20    1
    35    31    27   ar
@<TRIPOS>MOLECULE
*****
 31 35 0 0 0
SMALL
GASTEIGER

@<TRIPOS>ATOM
      1 C         139.9105  139.5577  158.2206 C.2     1  UNL1        0.0596
      2 C         139.6031  139.3764  159.6777 C.2     1  UNL1        0.0324
      3 C         139.0592  140.5228  160.4776 C.2     1  UNL1        0.0889
      4 N         138.6648  140.6426  161.9198 N.2     1  UNL1       -0.2236
      5 C         138.1846  142.0441  162.1542 C.2     1  UNL1        0.1859
      6 N         138.2821  142.7906  160.8568 N.2     1  UNL1       -0.2387
      7 C         138.8226  141.8504  159.8206 C.3     1  UNL1        0.1679
      8 C         139.1300  142.0315  158.3636 C.2     1  UNL1        0.0164
      9 C         139.6739  140.8851  157.5637 C.2     1  UNL1        0.0690
     10 CL        139.9813  141.0664  156.1067 Cl      1  UNL1       -0.0812
     11 N         141.5423  136.1184  155.8208 N.3     1  UNL1       -0.2698
     12 C         142.4150  136.8149  156.8225 C.3     1  UNL1        0.0938
     13 C         141.8711  137.9613  157.6224 C.3     1  UNL1        0.1081
     14 N         140.4544  138.4112  157.4207 N.pl3   1  UNL1       -0.3040
     15 C         139.5817  137.7147  156.4190 C.3     1  UNL1        0.1081
     16 C         140.1257  136.5683  155.6191 C.3     1  UNL1        0.0938
     17 C         141.9481  133.5685  155.5320 C.3     1  UNL1        0.0188
     18 C         142.0862  134.9720  155.0209 C.3     1  UNL1        0.0722
     19 S         137.6930  142.6014  163.4572 S.3     1  UNL1       -0.0777
     20 C         138.6550  142.8322  164.5848 C.3     1  UNL1        0.0461
     21 C         138.6393  144.2010  163.9715 C.3     1  UNL1        0.0113
     22 C         138.3366  141.3832  164.8064 C.3     1  UNL1        0.0109
     23 C         138.9746  140.6403  165.9427 C.3     1  UNL1        0.0101
     24 C         139.9312  141.3465  166.8573 C.3     1  UNL1        0.0783
     25 C         140.2495  142.7954  166.6356 C.3     1  UNL1        0.0101
     26 C         139.6115  143.5383  165.4993 C.3     1  UNL1        0.0109
     27 C         140.5693  140.6037  167.9935 C.ar    1  UNL1        0.2262
     28 N         139.8600  140.0492  169.1933 N.ar    1  UNL1       -0.1113
     29 N         140.8810  139.3877  170.0707 N.ar    1  UNL1       -0.1023
     30 C         142.2214  139.5333  169.4132 C.ar    1  UNL1        0.3056
     31 O         142.0287  140.2848  168.1294 O.2     1  UNL1       -0.4161
@<TRIPOS>BOND
     1    17    18    1
     2    18    11    1
     3    11    12    1
     4    12    13    1
     5    13    14    1
     6    14     1    1
     7     1     2    2
     8     2     3    1
     9     3     4    2
    10     4     5    1
    11     5    19    1
    12    19    20    1
    13    20    21    1
    14    20    22    1
    15    22    23    1
    16    23    24    1
    17    24    27    1
    18    27    28   ar
    19    28    29   ar
    20    29    30   ar
    21    30    31   ar
    22    24    25    1
    23    25    26    1
    24     5     6    2
    25     6     7    1
    26     7     8    1
    27     8     9    2
    28     9    10    1
    29    14    15    1
    30    15    16    1
    31    16    11    1
    32     9     1    1
    33     7     3    1
    34    26    20    1
    35    31    27   ar
