@<TRIPOS>MOLECULE
*****
 27 31 0 0 0
SMALL
GASTEIGER

@<TRIPOS>ATOM
      1 C         143.1693  138.4010  162.1256 C.3     1  UNL1        0.0171
      2 C         142.4965  138.7950  163.4070 C.3     1  UNL1        0.0552
      3 C         143.3591  138.7565  164.6336 C.3     1  UNL1        0.0205
      4 C         142.9884  139.0890  166.0485 C.3     1  UNL1        0.0290
      5 C         141.6634  139.5420  166.5864 C.2     1  UNL1       -0.0054
      6 C         140.3820  139.7745  165.8421 C.2     1  UNL1        0.0797
      7 N         139.3462  140.2211  166.8309 N.2     1  UNL1       -0.2519
      8 C         139.9874  140.2646  168.1863 C.2     1  UNL1        0.0627
      9 C         139.4523  140.6322  169.5384 C.3     1  UNL1        0.0717
     10 C         140.3493  140.5801  170.7395 C.2     1  UNL1       -0.0198
     11 C         141.7814  140.1604  170.5884 C.2     1  UNL1       -0.0042
     12 C         142.3165  139.7928  169.2362 C.2     1  UNL1        0.0006
     13 C         141.4196  139.8449  168.0351 C.2     1  UNL1        0.0111
     14 C         140.1090  139.6113  164.3762 C.3     1  UNL1        0.1673
     15 N         141.0501  139.1754  163.2925 N.3     1  UNL1       -0.2861
     16 C         138.9867  140.0650  165.2621 C.2     1  UNL1        0.2481
     17 O         138.8420  140.2296  166.0285 O.2     1  UNL1       -0.2726
     18 N         137.7708  140.2612  164.4060 N.am    1  UNL1       -0.2825
     19 C         138.1416  139.9288  162.9910 C.ar    1  UNL1        0.0483
     20 C         137.3500  139.9400  161.7169 C.ar    1  UNL1        0.0149
     21 C         138.0035  139.5494  160.4245 C.ar    1  UNL1        0.0079
     22 C         139.4486  139.1478  160.4061 C.ar    1  UNL1        0.0344
     23 BR        140.1021  138.7573  159.1137 Br      1  UNL1       -0.0490
     24 C         140.2402  139.1366  161.6802 C.ar    1  UNL1        0.0057
     25 C         139.5867  139.5271  162.9726 C.ar    1  UNL1        0.0180
     26 H         141.0402  139.9435  162.6214 H       1  UNL1        0.1242
     27 H         136.8849  140.5564  164.7180 H       1  UNL1        0.1549
@<TRIPOS>BOND
     1     2     1    1
     2     2     3    1
     3     3     4    1
     4     4     5    1
     5     5     6    2
     6     6     7    1
     7     7     8    2
     8     8     9    1
     9     9    10    1
    10    10    11    2
    11    11    12    1
    12    12    13    2
    13     6    14    1
    14    14    15    1
    15    14    16    1
    16    16    17    2
    17    16    18   am
    18    18    19    1
    19    19    20   ar
    20    20    21   ar
    21    21    22   ar
    22    22    23    1
    23    22    24   ar
    24    24    25   ar
    25    15     2    1
    26    25    19   ar
    27    13     5    1
    28    25    14    1
    29    13     8    1
    30    15    26    1
    31    18    27    1
@<TRIPOS>MOLECULE
*****
 27 31 0 0 0
SMALL
GASTEIGER

@<TRIPOS>ATOM
      1 C         138.0817  139.2964  162.2013 C.3     1  UNL1        0.0171
      2 C         138.8965  139.4198  163.4546 C.3     1  UNL1        0.0552
      3 C         138.1242  139.7119  164.7069 C.3     1  UNL1        0.0205
      4 C         138.6404  139.8911  166.1038 C.3     1  UNL1        0.0290
      5 C         140.0566  139.8225  166.5935 C.2     1  UNL1       -0.0054
      6 C         141.3063  139.5577  165.8071 C.2     1  UNL1        0.0797
      7 N         142.4673  139.5932  166.7562 N.2     1  UNL1       -0.2519
      8 C         141.9353  139.8800  168.1290 C.2     1  UNL1        0.0627
      9 C         142.6150  140.0303  169.4577 C.3     1  UNL1        0.0717
     10 C         141.8048  140.3224  170.6858 C.2     1  UNL1       -0.0198
     11 C         140.3149  140.4640  170.5852 C.2     1  UNL1       -0.0042
     12 C         139.6352  140.3137  169.2566 C.2     1  UNL1        0.0006
     13 C         140.4454  140.0216  168.0285 C.2     1  UNL1        0.0111
     14 C         141.4484  139.2962  164.3370 C.3     1  UNL1        0.1673
     15 N         140.3759  139.2348  163.2900 N.3     1  UNL1       -0.2861
     16 C         142.6888  139.3056  165.1805 C.2     1  UNL1        0.2481
     17 O         142.9106  139.4091  165.9390 O.2     1  UNL1       -0.2726
     18 N         143.8603  139.0308  164.2850 N.am    1  UNL1       -0.2825
     19 C         143.3440  138.8516  162.8880 C.ar    1  UNL1        0.0483
     20 C         144.0387  138.5603  161.5908 C.ar    1  UNL1        0.0149
     21 C         143.2427  138.4330  160.3259 C.ar    1  UNL1        0.0079
     22 C         141.7520  138.5970  160.3581 C.ar    1  UNL1        0.0344
     23 BR        140.9560  138.4697  159.0931 Br      1  UNL1       -0.0490
     24 C         141.0574  138.8883  161.6552 C.ar    1  UNL1        0.0057
     25 C         141.8534  139.0156  162.9202 C.ar    1  UNL1        0.0180
     26 H         140.4732  138.3065  162.8788 H       1  UNL1        0.1242
     27 H         144.8027  138.9775  164.5649 H       1  UNL1        0.1549
@<TRIPOS>BOND
     1     2     1    1
     2     2     3    1
     3     3     4    1
     4     4     5    1
     5     5     6    2
     6     6     7    1
     7     7     8    2
     8     8     9    1
     9     9    10    1
    10    10    11    2
    11    11    12    1
    12    12    13    2
    13     6    14    1
    14    14    15    1
    15    14    16    1
    16    16    17    2
    17    16    18   am
    18    18    19    1
    19    19    20   ar
    20    20    21   ar
    21    21    22   ar
    22    22    23    1
    23    22    24   ar
    24    24    25   ar
    25    15     2    1
    26    25    19   ar
    27    13     5    1
    28    25    14    1
    29    13     8    1
    30    15    26    1
    31    18    27    1
@<TRIPOS>MOLECULE
*****
 27 31 0 0 0
SMALL
GASTEIGER

@<TRIPOS>ATOM
      1 C         138.9861  143.6712  162.3758 C.3     1  UNL1        0.0171
      2 C         139.2692  143.0106  163.6924 C.3     1  UNL1        0.0552
      3 C         139.6258  143.9331  164.8201 C.3     1  UNL1        0.0205
      4 C         139.9596  143.5877  166.2411 C.3     1  UNL1        0.0290
      5 C         140.0192  142.2344  166.8854 C.2     1  UNL1       -0.0054
      6 C         139.7597  140.8924  166.2678 C.2     1  UNL1        0.0797
      7 N         139.9487  139.8494  167.3291 N.2     1  UNL1       -0.2519
      8 C         140.3251  140.5468  168.6026 C.2     1  UNL1        0.0627
      9 C         140.6338  140.0301  169.9766 C.3     1  UNL1        0.0717
     10 C         140.9860  140.9874  171.0762 C.2     1  UNL1       -0.0198
     11 C         141.0295  142.4615  170.8020 C.2     1  UNL1       -0.0042
     12 C         140.7209  142.9782  169.4281 C.2     1  UNL1        0.0006
     13 C         140.3686  142.0209  168.3284 C.2     1  UNL1        0.0111
     14 C         139.3765  140.5721  164.8533 C.3     1  UNL1        0.1673
     15 N         139.1582  141.5148  163.7072 N.3     1  UNL1       -0.2861
     16 C         139.5348  139.4371  165.8213 C.2     1  UNL1        0.2481
     17 O         139.7188  139.3079  166.5860 O.2     1  UNL1       -0.2726
     18 N         139.2510  138.1597  165.0882 N.am    1  UNL1       -0.2825
     19 C         138.9172  138.5051  163.6671 C.ar    1  UNL1        0.0483
     20 C         138.5527  137.6546  162.4865 C.ar    1  UNL1        0.0149
     21 C         138.2657  138.2950  161.1608 C.ar    1  UNL1        0.0079
     22 C         138.3433  139.7860  161.0157 C.ar    1  UNL1        0.0344
     23 BR        138.0563  140.4265  159.6900 Br      1  UNL1       -0.0490
     24 C         138.7078  140.6365  162.1963 C.ar    1  UNL1        0.0057
     25 C         138.9948  139.9960  163.5220 C.ar    1  UNL1        0.0180
     26 H         138.2042  141.3263  163.3995 H       1  UNL1        0.1242
     27 H         139.2789  137.2536  165.4722 H       1  UNL1        0.1549
@<TRIPOS>BOND
     1     2     1    1
     2     2     3    1
     3     3     4    1
     4     4     5    1
     5     5     6    2
     6     6     7    1
     7     7     8    2
     8     8     9    1
     9     9    10    1
    10    10    11    2
    11    11    12    1
    12    12    13    2
    13     6    14    1
    14    14    15    1
    15    14    16    1
    16    16    17    2
    17    16    18   am
    18    18    19    1
    19    19    20   ar
    20    20    21   ar
    21    21    22   ar
    22    22    23    1
    23    22    24   ar
    24    24    25   ar
    25    15     2    1
    26    25    19   ar
    27    13     5    1
    28    25    14    1
    29    13     8    1
    30    15    26    1
    31    18    27    1
@<TRIPOS>MOLECULE
*****
 27 31 0 0 0
SMALL
GASTEIGER

@<TRIPOS>ATOM
      1 C         138.4883  138.3739  162.4730 C.3     1  UNL1        0.0171
      2 C         138.8732  139.2291  163.6436 C.3     1  UNL1        0.0552
      3 C         138.8626  138.5468  164.9794 C.3     1  UNL1        0.0205
      4 C         139.1940  139.1204  166.3252 C.3     1  UNL1        0.0290
      5 C         139.6179  140.5179  166.6677 C.2     1  UNL1       -0.0054
      6 C         139.8151  141.6870  165.7488 C.2     1  UNL1        0.0797
      7 N         140.2421  142.8616  166.5783 N.2     1  UNL1       -0.2519
      8 C         140.3089  142.4185  168.0098 C.2     1  UNL1        0.0627
      9 C         140.6711  143.1467  169.2701 C.3     1  UNL1        0.0717
     10 C         140.6475  142.4265  170.5856 C.2     1  UNL1       -0.0198
     11 C         140.2618  140.9780  170.6408 C.2     1  UNL1       -0.0042
     12 C         139.8996  140.2497  169.3806 C.2     1  UNL1        0.0006
     13 C         139.9231  140.9700  168.0650 C.2     1  UNL1        0.0111
     14 C         139.6370  141.7474  164.2606 C.3     1  UNL1        0.1673
     15 N         139.2179  140.6535  163.3237 N.3     1  UNL1       -0.2861
     16 C         140.0685  142.9933  164.9760 C.2     1  UNL1        0.2481
     17 O         140.2339  143.2480  165.7130 O.2     1  UNL1       -0.2726
     18 N         140.2303  144.0810  163.9559 N.am    1  UNL1       -0.2825
     19 C         139.8989  143.5074  162.6101 C.ar    1  UNL1        0.0483
     20 C         139.8837  144.1121  161.2374 C.ar    1  UNL1        0.0149
     21 C         139.5017  143.2746  160.0531 C.ar    1  UNL1        0.0079
     22 C         139.1350  141.8323  160.2415 C.ar    1  UNL1        0.0344
     23 BR        138.7531  140.9947  159.0572 Br      1  UNL1       -0.0490
     24 C         139.1503  141.2276  161.6141 C.ar    1  UNL1        0.0057
     25 C         139.5322  142.0652  162.7984 C.ar    1  UNL1        0.0180
     26 H         139.9816  140.5867  162.6510 H       1  UNL1        0.1242
     27 H         140.5057  145.0086  164.1378 H       1  UNL1        0.1549
@<TRIPOS>BOND
     1     2     1    1
     2     2     3    1
     3     3     4    1
     4     4     5    1
     5     5     6    2
     6     6     7    1
     7     7     8    2
     8     8     9    1
     9     9    10    1
    10    10    11    2
    11    11    12    1
    12    12    13    2
    13     6    14    1
    14    14    15    1
    15    14    16    1
    16    16    17    2
    17    16    18   am
    18    18    19    1
    19    19    20   ar
    20    20    21   ar
    21    21    22   ar
    22    22    23    1
    23    22    24   ar
    24    24    25   ar
    25    15     2    1
    26    25    19   ar
    27    13     5    1
    28    25    14    1
    29    13     8    1
    30    15    26    1
    31    18    27    1
@<TRIPOS>MOLECULE
*****
 27 31 0 0 0
SMALL
GASTEIGER

@<TRIPOS>ATOM
      1 C         143.6959  141.6868  162.8472 C.3     1  UNL1        0.0171
      2 C         143.0049  142.5406  161.8256 C.3     1  UNL1        0.0552
      3 C         143.6004  142.5187  160.4490 C.3     1  UNL1        0.0205
      4 C         143.1480  143.2541  159.2225 C.3     1  UNL1        0.0290
      5 C         141.9882  144.1931  159.0695 C.2     1  UNL1       -0.0054
      6 C         140.9945  144.6285  160.1054 C.2     1  UNL1        0.0797
      7 N         140.0304  145.5749  159.4538 N.2     1  UNL1       -0.2519
      8 C         140.4281  145.7245  158.0153 C.2     1  UNL1        0.0627
      9 C         139.8449  146.5280  156.8910 C.3     1  UNL1        0.0717
     10 C         140.4716  146.4775  155.5292 C.2     1  UNL1       -0.0198
     11 C         141.6817  145.6234  155.2916 C.2     1  UNL1       -0.0042
     12 C         142.2649  144.8199  156.4160 C.2     1  UNL1        0.0006
     13 C         141.6382  144.8704  157.7778 C.2     1  UNL1        0.0111
     14 C         140.9152  144.2325  161.5500 C.3     1  UNL1        0.1673
     15 N         141.8099  143.3033  162.3156 N.3     1  UNL1       -0.2861
     16 C         139.8893  145.1887  161.0176 C.2     1  UNL1        0.2481
     17 O         139.6910  145.5557  160.3385 O.2     1  UNL1       -0.2726
     18 N         138.9615  145.5458  162.1409 N.am    1  UNL1       -0.2825
     19 C         139.4140  144.8103  163.3674 C.ar    1  UNL1        0.0483
     20 C         138.8826  144.7749  164.7698 C.ar    1  UNL1        0.0149
     21 C         139.5585  143.9278  165.8068 C.ar    1  UNL1        0.0079
     22 C         140.7660  143.1161  165.4416 C.ar    1  UNL1        0.0344
     23 BR        141.4419  142.2690  166.4786 Br      1  UNL1       -0.0490
     24 C         141.2974  143.1516  164.0394 C.ar    1  UNL1        0.0057
     25 C         140.6214  143.9987  163.0023 C.ar    1  UNL1        0.0180
     26 H         141.1820  142.5873  162.6809 H       1  UNL1        0.1242
     27 H         138.1909  146.1558  162.0833 H       1  UNL1        0.1549
@<TRIPOS>BOND
     1     2     1    1
     2     2     3    1
     3     3     4    1
     4     4     5    1
     5     5     6    2
     6     6     7    1
     7     7     8    2
     8     8     9    1
     9     9    10    1
    10    10    11    2
    11    11    12    1
    12    12    13    2
    13     6    14    1
    14    14    15    1
    15    14    16    1
    16    16    17    2
    17    16    18   am
    18    18    19    1
    19    19    20   ar
    20    20    21   ar
    21    21    22   ar
    22    22    23    1
    23    22    24   ar
    24    24    25   ar
    25    15     2    1
    26    25    19   ar
    27    13     5    1
    28    25    14    1
    29    13     8    1
    30    15    26    1
    31    18    27    1
@<TRIPOS>MOLECULE
*****
 27 31 0 0 0
SMALL
GASTEIGER

@<TRIPOS>ATOM
      1 C         141.2162  138.0129  161.9079 C.3     1  UNL1        0.0171
      2 C         141.1261  138.8557  163.1455 C.3     1  UNL1        0.0552
      3 C         140.3104  138.2816  164.2658 C.3     1  UNL1        0.0205
      4 C         140.0307  138.8712  165.6164 C.3     1  UNL1        0.0290
      5 C         140.4977  140.1804  166.1804 C.2     1  UNL1       -0.0054
      6 C         141.3596  141.2233  165.5329 C.2     1  UNL1        0.0797
      7 N         141.5403  142.3471  166.5099 N.2     1  UNL1       -0.2519
      8 C         140.7899  141.9987  167.7611 C.2     1  UNL1        0.0627
      9 C         140.6102  142.7278  169.0596 C.3     1  UNL1        0.0717
     10 C         139.7861  142.1178  170.1544 C.2     1  UNL1       -0.0198
     11 C         139.1417  140.7787  169.9508 C.2     1  UNL1       -0.0042
     12 C         139.3215  140.0496  168.6523 C.2     1  UNL1        0.0006
     13 C         140.1456  140.6596  167.5575 C.2     1  UNL1        0.0111
     14 C         141.9675  141.2147  164.1616 C.3     1  UNL1        0.1673
     15 N         141.8636  140.1610  163.0991 N.3     1  UNL1       -0.2861
     16 C         142.2234  142.3996  165.0452 C.2     1  UNL1        0.2481
     17 O         142.0448  142.6675  165.7743 O.2     1  UNL1       -0.2726
     18 N         143.0900  143.3628  164.2894 N.am    1  UNL1       -0.2825
     19 C         143.3697  142.7732  162.9388 C.ar    1  UNL1        0.0483
     20 C         144.1665  143.2738  161.7705 C.ar    1  UNL1        0.0149
     21 C         144.2695  142.4468  160.5234 C.ar    1  UNL1        0.0079
     22 C         143.5757  141.1192  160.4444 C.ar    1  UNL1        0.0344
     23 BR        143.6788  140.2921  159.1973 Br      1  UNL1       -0.0490
     24 C         142.7790  140.6187  161.6126 C.ar    1  UNL1        0.0057
     25 C         142.6760  141.4457  162.8598 C.ar    1  UNL1        0.0180
     26 H         142.8300  139.9016  162.9011 H       1  UNL1        0.1242
     27 H         143.4177  144.2298  164.6215 H       1  UNL1        0.1549
@<TRIPOS>BOND
     1     2     1    1
     2     2     3    1
     3     3     4    1
     4     4     5    1
     5     5     6    2
     6     6     7    1
     7     7     8    2
     8     8     9    1
     9     9    10    1
    10    10    11    2
    11    11    12    1
    12    12    13    2
    13     6    14    1
    14    14    15    1
    15    14    16    1
    16    16    17    2
    17    16    18   am
    18    18    19    1
    19    19    20   ar
    20    20    21   ar
    21    21    22   ar
    22    22    23    1
    23    22    24   ar
    24    24    25   ar
    25    15     2    1
    26    25    19   ar
    27    13     5    1
    28    25    14    1
    29    13     8    1
    30    15    26    1
    31    18    27    1
@<TRIPOS>MOLECULE
*****
 27 31 0 0 0
SMALL
GASTEIGER

@<TRIPOS>ATOM
      1 C         144.4573  143.3369  161.8496 C.3     1  UNL1        0.0171
      2 C         144.0440  142.6512  163.1180 C.3     1  UNL1        0.0552
      3 C         144.1764  143.4654  164.3709 C.3     1  UNL1        0.0205
      4 C         143.8505  143.0716  165.7810 C.3     1  UNL1        0.0290
      5 C         143.3116  141.7662  166.2867 C.2     1  UNL1       -0.0054
      6 C         142.9655  140.5323  165.5070 C.2     1  UNL1        0.0797
      7 N         142.4655  139.4990  166.4725 N.2     1  UNL1       -0.2519
      8 C         142.5025  140.0942  167.8489 C.2     1  UNL1        0.0627
      9 C         142.1276  139.5413  169.1919 C.3     1  UNL1        0.0717
     10 C         142.2756  140.3896  170.4201 C.2     1  UNL1       -0.0198
     11 C         142.7985  141.7908  170.3052 C.2     1  UNL1       -0.0042
     12 C         143.1734  142.3437  168.9622 C.2     1  UNL1        0.0006
     13 C         143.0254  141.4954  167.7341 C.2     1  UNL1        0.0111
     14 C         143.0729  140.2991  164.0292 C.3     1  UNL1        0.1673
     15 N         143.5529  141.2421  162.9660 N.3     1  UNL1       -0.2861
     16 C         142.5568  139.1837  164.8892 C.2     1  UNL1        0.2481
     17 O         142.4000  139.0251  165.6545 O.2     1  UNL1       -0.2726
     18 N         142.2492  138.0163  163.9990 N.am    1  UNL1       -0.2825
     19 C         142.5752  138.4102  162.5888 C.ar    1  UNL1        0.0483
     20 C         142.4743  137.6664  161.2900 C.ar    1  UNL1        0.0149
     21 C         142.8824  138.3335  160.0100 C.ar    1  UNL1        0.0079
     22 C         143.3914  139.7444  160.0287 C.ar    1  UNL1        0.0344
     23 BR        143.7995  140.4114  158.7487 Br      1  UNL1       -0.0490
     24 C         143.4924  140.4881  161.3274 C.ar    1  UNL1        0.0057
     25 C         143.0843  139.8210  162.6074 C.ar    1  UNL1        0.0180
     26 H         142.7706  141.3129  162.3152 H       1  UNL1        0.1242
     27 H         141.8955  137.1446  164.2893 H       1  UNL1        0.1549
@<TRIPOS>BOND
     1     2     1    1
     2     2     3    1
     3     3     4    1
     4     4     5    1
     5     5     6    2
     6     6     7    1
     7     7     8    2
     8     8     9    1
     9     9    10    1
    10    10    11    2
    11    11    12    1
    12    12    13    2
    13     6    14    1
    14    14    15    1
    15    14    16    1
    16    16    17    2
    17    16    18   am
    18    18    19    1
    19    19    20   ar
    20    20    21   ar
    21    21    22   ar
    22    22    23    1
    23    22    24   ar
    24    24    25   ar
    25    15     2    1
    26    25    19   ar
    27    13     5    1
    28    25    14    1
    29    13     8    1
    30    15    26    1
    31    18    27    1
@<TRIPOS>MOLECULE
*****
 27 31 0 0 0
SMALL
GASTEIGER

@<TRIPOS>ATOM
      1 C         137.7351  138.0026  166.7521 C.3     1  UNL1        0.0171
      2 C         138.8292  138.3930  165.8032 C.3     1  UNL1        0.0552
      3 C         138.7997  137.7193  164.4633 C.3     1  UNL1        0.0205
      4 C         139.7419  137.8917  163.3089 C.3     1  UNL1        0.0290
      5 C         140.9462  138.7804  163.2092 C.2     1  UNL1       -0.0054
      6 C         141.5058  139.7161  164.2394 C.2     1  UNL1        0.0797
      7 N         142.7193  140.3765  163.6552 N.2     1  UNL1       -0.2519
      8 C         142.9097  139.8490  162.2640 C.2     1  UNL1        0.0627
      9 C         143.9393  140.1394  161.2126 C.3     1  UNL1        0.0717
     10 C         143.8730  139.4434  159.8856 C.2     1  UNL1       -0.0198
     11 C         142.7772  138.4569  159.6099 C.2     1  UNL1       -0.0042
     12 C         141.7476  138.1665  160.6613 C.2     1  UNL1        0.0006
     13 C         141.8138  138.8625  161.9884 C.2     1  UNL1        0.0111
     14 C         140.9993  139.9943  165.6237 C.3     1  UNL1        0.1673
     15 N         139.8082  139.4054  166.3196 N.3     1  UNL1       -0.2861
     16 C         142.2254  140.7210  165.1559 C.2     1  UNL1        0.2481
     17 O         142.6956  140.7754  164.5146 O.2     1  UNL1       -0.2726
     18 N         142.6847  141.6180  166.2670 N.am    1  UNL1       -0.2825
     19 C         141.7425  141.4455  167.4214 C.ar    1  UNL1        0.0483
     20 C         141.6985  142.0727  168.7834 C.ar    1  UNL1        0.0149
     21 C         140.6129  141.6964  169.7476 C.ar    1  UNL1        0.0079
     22 C         139.5713  140.6928  169.3500 C.ar    1  UNL1        0.0344
     23 BR        138.4857  140.3165  170.3143 Br      1  UNL1       -0.0490
     24 C         139.6153  140.0657  167.9881 C.ar    1  UNL1        0.0057
     25 C         140.7009  140.4421  167.0238 C.ar    1  UNL1        0.0180
     26 H         139.2346  140.2109  166.5700 H       1  UNL1        0.1242
     27 H         143.4671  142.2150  166.2428 H       1  UNL1        0.1549
@<TRIPOS>BOND
     1     2     1    1
     2     2     3    1
     3     3     4    1
     4     4     5    1
     5     5     6    2
     6     6     7    1
     7     7     8    2
     8     8     9    1
     9     9    10    1
    10    10    11    2
    11    11    12    1
    12    12    13    2
    13     6    14    1
    14    14    15    1
    15    14    16    1
    16    16    17    2
    17    16    18   am
    18    18    19    1
    19    19    20   ar
    20    20    21   ar
    21    21    22   ar
    22    22    23    1
    23    22    24   ar
    24    24    25   ar
    25    15     2    1
    26    25    19   ar
    27    13     5    1
    28    25    14    1
    29    13     8    1
    30    15    26    1
    31    18    27    1
@<TRIPOS>MOLECULE
*****
 27 31 0 0 0
SMALL
GASTEIGER

@<TRIPOS>ATOM
      1 C         143.4322  141.4430  162.0664 C.3     1  UNL1        0.0171
      2 C         142.8961  141.3233  163.4622 C.3     1  UNL1        0.0552
      3 C         143.6262  142.1107  164.5095 C.3     1  UNL1        0.0205
      4 C         143.3413  142.2013  165.9794 C.3     1  UNL1        0.0290
      5 C         142.2560  141.5268  166.7651 C.2     1  UNL1       -0.0054
      6 C         141.1875  140.5952  166.2748 C.2     1  UNL1        0.0797
      7 N         140.3475  140.1935  167.4508 N.2     1  UNL1       -0.2519
      8 C         140.8968  140.8768  168.6679 C.2     1  UNL1        0.0627
      9 C         140.4753  140.8551  170.1072 C.3     1  UNL1        0.0717
     10 C         141.2333  141.6575  171.1228 C.2     1  UNL1       -0.0198
     11 C         142.4129  142.4816  170.6990 C.2     1  UNL1       -0.0042
     12 C         142.8343  142.5033  169.2597 C.2     1  UNL1        0.0006
     13 C         142.0763  141.7009  168.2441 C.2     1  UNL1        0.0111
     14 C         140.9404  140.1079  164.8778 C.3     1  UNL1        0.1673
     15 N         141.7009  140.4319  163.6261 N.3     1  UNL1       -0.2861
     16 C         140.0275  139.6317  165.9686 C.2     1  UNL1        0.2481
     17 O         139.9195  139.7143  166.7540 O.2     1  UNL1       -0.2726
     18 N         139.0114  138.7145  165.3552 N.am    1  UNL1       -0.2825
     19 C         139.2964  138.6239  163.8853 C.ar    1  UNL1        0.0483
     20 C         138.6242  137.8685  162.7773 C.ar    1  UNL1        0.0149
     21 C         139.1442  137.9742  161.3743 C.ar    1  UNL1        0.0079
     22 C         140.3364  138.8354  161.0793 C.ar    1  UNL1        0.0344
     23 BR        140.8565  138.9412  159.6763 Br      1  UNL1       -0.0490
     24 C         141.0085  139.5908  162.1872 C.ar    1  UNL1        0.0057
     25 C         140.4885  139.4851  163.5902 C.ar    1  UNL1        0.0180
     26 H         141.0011  140.8246  162.9964 H       1  UNL1        0.1242
     27 H         138.2850  138.2530  165.8334 H       1  UNL1        0.1549
@<TRIPOS>BOND
     1     2     1    1
     2     2     3    1
     3     3     4    1
     4     4     5    1
     5     5     6    2
     6     6     7    1
     7     7     8    2
     8     8     9    1
     9     9    10    1
    10    10    11    2
    11    11    12    1
    12    12    13    2
    13     6    14    1
    14    14    15    1
    15    14    16    1
    16    16    17    2
    17    16    18   am
    18    18    19    1
    19    19    20   ar
    20    20    21   ar
    21    21    22   ar
    22    22    23    1
    23    22    24   ar
    24    24    25   ar
    25    15     2    1
    26    25    19   ar
    27    13     5    1
    28    25    14    1
    29    13     8    1
    30    15    26    1
    31    18    27    1
