@<TRIPOS>MOLECULE
*****
 32 35 0 0 0
SMALL
GASTEIGER

@<TRIPOS>ATOM
      1 N         144.2832  138.7586  163.0358 N.3     1  UNL1       -0.2863
      2 H         145.2914  138.6599  163.1546 H       1  UNL1        0.1240
      3 C         143.7431  139.2795  164.3346 C.3     1  UNL1        0.1341
      4 C         142.9355  138.5001  165.3296 C.3     1  UNL1        0.0471
      5 C         142.6091  139.4103  166.4764 C.3     1  UNL1        0.1031
      6 N         143.2150  140.7523  166.1900 N.am    1  UNL1       -0.2252
      7 C         143.1342  141.9625  167.0724 C.2     1  UNL1        0.2563
      8 O         143.7933  143.2427  166.6518 O.2     1  UNL1       -0.2694
      9 C         143.9159  140.6714  164.8663 C.2     1  UNL1        0.2459
     10 O         144.6590  141.7867  164.1925 O.2     1  UNL1       -0.2730
     11 C         142.3944  141.8927  168.3754 C.ar    1  UNL1        0.0736
     12 C         142.9834  142.5149  169.6065 C.ar    1  UNL1        0.1034
     13 N         142.2436  142.4451  170.9095 N.ar    1  UNL1       -0.2417
     14 C         140.9148  141.7531  170.9814 C.ar    1  UNL1        0.1055
     15 C         140.3257  141.1308  169.7502 C.ar    1  UNL1        0.0539
     16 BR        138.9969  140.4388  169.8220 Br      1  UNL1       -0.0474
     17 C         141.0655  141.2006  168.4472 C.ar    1  UNL1        0.0143
     18 C         144.0702  139.5344  161.7697 C.3     1  UNL1        0.1151
     19 N         141.4759  139.7804  161.1747 N.ar    1  UNL1       -0.3070
     20 C         140.5860  139.2712  160.0798 C.ar    1  UNL1        0.1786
     21 N         141.4226  138.4439  159.1493 N.ar    1  UNL1       -0.2226
     22 C         142.8297  138.4418  159.6691 C.ar    1  UNL1        0.1147
     23 C         142.8627  139.2678  160.9208 C.ar    1  UNL1        0.0739
     24 C         141.0535  140.6495  162.3219 C.3     1  UNL1        0.1340
     25 C         138.5423  138.9339  165.6386 C.ar    1  UNL1        0.0684
     26 C         139.0225  138.0489  164.5269 C.ar    1  UNL1        0.0100
     27 C         139.8595  138.6207  163.4213 C.ar    1  UNL1       -0.0017
     28 C         140.2164  140.0776  163.4275 C.ar    1  UNL1        0.0005
     29 C         139.7362  140.9627  164.5392 C.ar    1  UNL1       -0.0017
     30 C         138.8991  140.3908  165.6448 C.ar    1  UNL1        0.0100
     31 N         136.8681  137.7902  167.8498 N.1     1  UNL1       -0.1908
     32 C         137.7052  138.3621  166.7442 C.1     1  UNL1        0.1004
@<TRIPOS>BOND
     1    31    32    3
     2    32    25    1
     3    25    26   ar
     4    26    27   ar
     5    27    28   ar
     6    28    24    1
     7    24    19    1
     8    19    20   ar
     9    20    21   ar
    10    21    22   ar
    11    22    23   ar
    12    23    18    1
    13    18     1    1
    14     3     1    1
    15     3     4    1
    16     4     5    1
    17     5     6    1
    18     6     7   am
    19     7     8    2
    20     7    11    1
    21    11    12   ar
    22    12    13   ar
    23    13    14   ar
    24    14    15   ar
    25    15    16    1
    26    15    17   ar
    27     6     9   am
    28     9    10    2
    29    28    29   ar
    30    29    30   ar
    31    30    25   ar
    32    23    19   ar
    33     9     3    1
    34    17    11   ar
    35     1     2    1
@<TRIPOS>MOLECULE
*****
 32 35 0 0 0
SMALL
GASTEIGER

@<TRIPOS>ATOM
      1 N         144.9516  142.0519  162.8364 N.3     1  UNL1       -0.2863
      2 H         145.3586  142.9872  162.8425 H       1  UNL1        0.1240
      3 C         144.2857  141.8608  164.1669 C.3     1  UNL1        0.1341
      4 C         143.7543  142.9495  165.0513 C.3     1  UNL1        0.0471
      5 C         143.1745  142.3090  166.2775 C.3     1  UNL1        0.1031
      6 N         143.3476  140.8245  166.1508 N.am    1  UNL1       -0.2252
      7 C         142.9106  139.7973  167.1527 C.2     1  UNL1        0.2563
      8 O         143.1523  138.3408  166.8877 O.2     1  UNL1       -0.2694
      9 C         144.0343  140.5474  164.8464 C.2     1  UNL1        0.2459
     10 O         144.4047  139.1945  164.3149 O.2     1  UNL1       -0.2730
     11 C         142.2318  140.2265  168.4197 C.ar    1  UNL1        0.0736
     12 C         143.0323  140.8460  169.5266 C.ar    1  UNL1        0.1034
     13 N         142.3537  141.2752  170.7935 N.ar    1  UNL1       -0.2417
     14 C         140.8744  141.0850  170.9535 C.ar    1  UNL1        0.1055
     15 C         140.0738  140.4655  169.8466 C.ar    1  UNL1        0.0539
     16 BR        138.5946  140.2753  170.0065 Br      1  UNL1       -0.0474
     17 C         140.7525  140.0363  168.5796 C.ar    1  UNL1        0.0143
     18 C         144.1508  141.9363  161.5733 C.3     1  UNL1        0.1151
     19 N         142.0757  140.2554  161.6893 N.ar    1  UNL1       -0.3070
     20 C         141.7802  138.8949  161.1309 C.ar    1  UNL1        0.1786
     21 N         142.9742  138.4493  160.3396 N.ar    1  UNL1       -0.2226
     22 C         144.0075  139.5344  160.4090 C.ar    1  UNL1        0.1147
     23 C         143.4523  140.6506  161.2432 C.ar    1  UNL1        0.0739
     24 C         141.1561  141.0765  162.5438 C.3     1  UNL1        0.1340
     25 C         138.5970  139.0782  165.6596 C.ar    1  UNL1        0.0684
     26 C         139.8946  138.4528  165.2410 C.ar    1  UNL1        0.0100
     27 C         140.7476  139.1189  164.2024 C.ar    1  UNL1       -0.0017
     28 C         140.3031  140.4104  163.5824 C.ar    1  UNL1        0.0005
     29 C         139.0056  141.0358  164.0010 C.ar    1  UNL1       -0.0017
     30 C         138.1525  140.3697  165.0396 C.ar    1  UNL1        0.0100
     31 N         136.8910  137.7461  167.7368 N.1     1  UNL1       -0.1908
     32 C         137.7440  138.4122  166.6982 C.1     1  UNL1        0.1004
@<TRIPOS>BOND
     1    31    32    3
     2    32    25    1
     3    25    26   ar
     4    26    27   ar
     5    27    28   ar
     6    28    24    1
     7    24    19    1
     8    19    20   ar
     9    20    21   ar
    10    21    22   ar
    11    22    23   ar
    12    23    18    1
    13    18     1    1
    14     3     1    1
    15     3     4    1
    16     4     5    1
    17     5     6    1
    18     6     7   am
    19     7     8    2
    20     7    11    1
    21    11    12   ar
    22    12    13   ar
    23    13    14   ar
    24    14    15   ar
    25    15    16    1
    26    15    17   ar
    27     6     9   am
    28     9    10    2
    29    28    29   ar
    30    29    30   ar
    31    30    25   ar
    32    23    19   ar
    33     9     3    1
    34    17    11   ar
    35     1     2    1
@<TRIPOS>MOLECULE
*****
 32 35 0 0 0
SMALL
GASTEIGER

@<TRIPOS>ATOM
      1 N         136.9918  140.5869  161.8311 N.3     1  UNL1       -0.2863
      2 H         136.2102  140.0438  162.1979 H       1  UNL1        0.1240
      3 C         137.8813  140.9067  162.9957 C.3     1  UNL1        0.1341
      4 C         138.1116  140.0353  164.1947 C.3     1  UNL1        0.0471
      5 C         139.0693  140.7442  165.1059 C.3     1  UNL1        0.1031
      6 N         139.4309  142.0537  164.4700 N.am    1  UNL1       -0.2252
      7 C         140.3631  143.0822  165.0384 C.2     1  UNL1        0.2563
      8 O         140.6298  144.3511  164.2843 O.2     1  UNL1       -0.2694
      9 C         138.6967  142.1542  163.1658 C.2     1  UNL1        0.2459
     10 O         138.7657  143.3008  162.2012 O.2     1  UNL1       -0.2730
     11 C         141.0287  142.8418  166.3611 C.ar    1  UNL1        0.0736
     12 C         142.4755  142.4495  166.4122 C.ar    1  UNL1        0.1034
     13 N         143.1411  142.2091  167.7348 N.ar    1  UNL1       -0.2417
     14 C         142.3598  142.3609  169.0062 C.ar    1  UNL1        0.1055
     15 C         140.9129  142.7532  168.9550 C.ar    1  UNL1        0.0539
     16 BR        140.1316  142.9050  170.2264 Br      1  UNL1       -0.0474
     17 C         140.2473  142.9936  167.6325 C.ar    1  UNL1        0.0143
     18 C         137.5357  139.8255  160.6587 C.3     1  UNL1        0.1151
     19 N         140.1329  139.6045  160.0668 N.ar    1  UNL1       -0.3070
     20 C         141.1056  140.4003  159.2477 C.ar    1  UNL1        0.1786
     21 N         140.3708  141.5697  158.6624 N.ar    1  UNL1       -0.2226
     22 C         138.9440  141.4967  159.1197 C.ar    1  UNL1        0.1147
     23 C         138.7970  140.2822  159.9876 C.ar    1  UNL1        0.0739
     24 C         140.4419  138.3512  160.8308 C.3     1  UNL1        0.1340
     25 C         142.1265  138.6124  164.9954 C.ar    1  UNL1        0.0684
     26 C         141.3238  137.4136  164.5848 C.ar    1  UNL1        0.0100
     27 C         140.7623  137.3266  163.1966 C.ar    1  UNL1       -0.0017
     28 C         141.0034  138.4383  162.2190 C.ar    1  UNL1        0.0005
     29 C         141.8061  139.6371  162.6295 C.ar    1  UNL1       -0.0017
     30 C         142.3676  139.7241  164.0177 C.ar    1  UNL1        0.0100
     31 N         143.2496  138.7865  167.7718 N.1     1  UNL1       -0.1908
     32 C         142.6880  138.6994  166.3836 C.1     1  UNL1        0.1004
@<TRIPOS>BOND
     1    31    32    3
     2    32    25    1
     3    25    26   ar
     4    26    27   ar
     5    27    28   ar
     6    28    24    1
     7    24    19    1
     8    19    20   ar
     9    20    21   ar
    10    21    22   ar
    11    22    23   ar
    12    23    18    1
    13    18     1    1
    14     3     1    1
    15     3     4    1
    16     4     5    1
    17     5     6    1
    18     6     7   am
    19     7     8    2
    20     7    11    1
    21    11    12   ar
    22    12    13   ar
    23    13    14   ar
    24    14    15   ar
    25    15    16    1
    26    15    17   ar
    27     6     9   am
    28     9    10    2
    29    28    29   ar
    30    29    30   ar
    31    30    25   ar
    32    23    19   ar
    33     9     3    1
    34    17    11   ar
    35     1     2    1
@<TRIPOS>MOLECULE
*****
 32 35 0 0 0
SMALL
GASTEIGER

@<TRIPOS>ATOM
      1 N         142.6534  138.8393  161.3836 N.3     1  UNL1       -0.2863
      2 H         143.1349  139.5151  160.7905 H       1  UNL1        0.1240
      3 C         142.4533  139.4981  162.7163 C.3     1  UNL1        0.1341
      4 C         142.3545  138.7987  164.0396 C.3     1  UNL1        0.0471
      5 C         142.1571  139.8403  165.1008 C.3     1  UNL1        0.1031
      6 N         142.1338  141.1834  164.4333 N.am    1  UNL1       -0.2252
      7 C         141.9583  142.5058  165.1191 C.2     1  UNL1        0.2563
      8 O         141.9560  143.7727  164.3160 O.2     1  UNL1       -0.2694
      9 C         142.3169  140.9719  162.9596 C.2     1  UNL1        0.2459
     10 O         142.3566  142.0457  161.9130 O.2     1  UNL1       -0.2730
     11 C         141.7849  142.5614  166.6081 C.ar    1  UNL1        0.0736
     12 C         140.4241  142.7881  167.1967 C.ar    1  UNL1        0.1034
     13 N         140.2508  142.8437  168.6856 N.ar    1  UNL1       -0.2417
     14 C         141.4383  142.6725  169.5858 C.ar    1  UNL1        0.1055
     15 C         142.7992  142.4457  168.9971 C.ar    1  UNL1        0.0539
     16 BR        143.9868  142.2746  169.8973 Br      1  UNL1       -0.0474
     17 C         142.9726  142.3902  167.5082 C.ar    1  UNL1        0.0143
     18 C         141.4696  138.3462  160.6054 C.3     1  UNL1        0.1151
     19 N         139.0011  139.3649  160.4893 N.ar    1  UNL1       -0.3070
     20 C         138.3529  140.4921  159.7414 C.ar    1  UNL1        0.1786
     21 N         139.3993  141.1435  158.8865 N.ar    1  UNL1       -0.2226
     22 C         140.6943  140.4189  159.1061 C.ar    1  UNL1        0.1147
     23 C         140.4481  139.3197  160.0967 C.ar    1  UNL1        0.0739
     24 C         138.3216  138.4446  161.4595 C.3     1  UNL1        0.1340
     25 C         138.6775  139.1796  165.8848 C.ar    1  UNL1        0.0684
     26 C         138.3256  140.3092  164.9628 C.ar    1  UNL1        0.0100
     27 C         138.2070  140.0642  163.4877 C.ar    1  UNL1       -0.0017
     28 C         138.4402  138.6896  162.9346 C.ar    1  UNL1        0.0005
     29 C         138.7921  137.5600  163.8566 C.ar    1  UNL1       -0.0017
     30 C         138.9107  137.8050  165.3317 C.ar    1  UNL1        0.0100
     31 N         138.9147  139.6696  168.8350 N.1     1  UNL1       -0.1908
     32 C         138.7961  139.4246  167.3599 C.1     1  UNL1        0.1004
@<TRIPOS>BOND
     1    31    32    3
     2    32    25    1
     3    25    26   ar
     4    26    27   ar
     5    27    28   ar
     6    28    24    1
     7    24    19    1
     8    19    20   ar
     9    20    21   ar
    10    21    22   ar
    11    22    23   ar
    12    23    18    1
    13    18     1    1
    14     3     1    1
    15     3     4    1
    16     4     5    1
    17     5     6    1
    18     6     7   am
    19     7     8    2
    20     7    11    1
    21    11    12   ar
    22    12    13   ar
    23    13    14   ar
    24    14    15   ar
    25    15    16    1
    26    15    17   ar
    27     6     9   am
    28     9    10    2
    29    28    29   ar
    30    29    30   ar
    31    30    25   ar
    32    23    19   ar
    33     9     3    1
    34    17    11   ar
    35     1     2    1
@<TRIPOS>MOLECULE
*****
 32 35 0 0 0
SMALL
GASTEIGER

@<TRIPOS>ATOM
      1 N         144.1929  141.4278  161.8022 N.3     1  UNL1       -0.2863
      2 H         143.7428  142.1649  161.2594 H       1  UNL1        0.1240
      3 C         143.5146  141.3994  163.1398 C.3     1  UNL1        0.1341
      4 C         144.1979  141.4040  164.4751 C.3     1  UNL1        0.0471
      5 C         143.1396  141.3689  165.5375 C.3     1  UNL1        0.1031
      6 N         141.8022  141.3426  164.8587 N.am    1  UNL1       -0.2252
      7 C         140.4674  141.3041  165.5419 C.2     1  UNL1        0.2563
      8 O         139.2082  141.2809  164.7271 O.2     1  UNL1       -0.2694
      9 C         142.0340  141.3614  163.3769 C.2     1  UNL1        0.2459
     10 O         140.9716  141.3452  162.3180 O.2     1  UNL1       -0.2730
     11 C         140.3917  141.2889  167.0400 C.ar    1  UNL1        0.0736
     12 C         140.2170  139.9897  167.7688 C.ar    1  UNL1        0.1034
     13 N         140.1413  139.9743  169.2668 N.ar    1  UNL1       -0.2417
     14 C         140.2404  141.2583  170.0359 C.ar    1  UNL1        0.1055
     15 C         140.4152  142.5576  169.3070 C.ar    1  UNL1        0.0539
     16 BR        140.5143  143.8416  170.0761 Br      1  UNL1       -0.0474
     17 C         140.4909  142.5729  167.8090 C.ar    1  UNL1        0.0143
     18 C         144.2032  140.2002  160.9402 C.3     1  UNL1        0.1151
     19 N         142.0960  138.7585  160.1490 N.ar    1  UNL1       -0.3070
     20 C         141.0986  138.8620  159.0334 C.ar    1  UNL1        0.1786
     21 N         141.4322  140.0807  158.2249 N.ar    1  UNL1       -0.2226
     22 C         142.6359  140.7303  158.8408 C.ar    1  UNL1        0.1147
     23 C         143.0461  139.9132  160.0299 C.ar    1  UNL1        0.0739
     24 C         142.1363  137.6882  161.1992 C.3     1  UNL1        0.1340
     25 C         139.2742  137.8315  164.6687 C.ar    1  UNL1        0.0684
     26 C         140.7444  137.6656  164.9156 C.ar    1  UNL1        0.0100
     27 C         141.6984  137.6178  163.7591 C.ar    1  UNL1       -0.0017
     28 C         141.1823  137.7360  162.3557 C.ar    1  UNL1        0.0005
     29 C         139.7121  137.9019  162.1088 C.ar    1  UNL1       -0.0017
     30 C         138.7581  137.9496  163.2653 C.ar    1  UNL1        0.0100
     31 N         137.3662  137.9270  166.9818 N.1     1  UNL1       -0.1908
     32 C         138.3202  137.8792  165.8252 C.1     1  UNL1        0.1004
@<TRIPOS>BOND
     1    31    32    3
     2    32    25    1
     3    25    26   ar
     4    26    27   ar
     5    27    28   ar
     6    28    24    1
     7    24    19    1
     8    19    20   ar
     9    20    21   ar
    10    21    22   ar
    11    22    23   ar
    12    23    18    1
    13    18     1    1
    14     3     1    1
    15     3     4    1
    16     4     5    1
    17     5     6    1
    18     6     7   am
    19     7     8    2
    20     7    11    1
    21    11    12   ar
    22    12    13   ar
    23    13    14   ar
    24    14    15   ar
    25    15    16    1
    26    15    17   ar
    27     6     9   am
    28     9    10    2
    29    28    29   ar
    30    29    30   ar
    31    30    25   ar
    32    23    19   ar
    33     9     3    1
    34    17    11   ar
    35     1     2    1
@<TRIPOS>MOLECULE
*****
 32 35 0 0 0
SMALL
GASTEIGER

@<TRIPOS>ATOM
      1 N         144.9928  141.8689  162.5953 N.3     1  UNL1       -0.2863
      2 H         145.6346  142.6608  162.5585 H       1  UNL1        0.1240
      3 C         144.4120  141.8462  163.9781 C.3     1  UNL1        0.1341
      4 C         144.3248  143.0126  164.9171 C.3     1  UNL1        0.0471
      5 C         143.6753  142.5403  166.1840 C.3     1  UNL1        0.1031
      6 N         143.3610  141.0820  166.0279 N.am    1  UNL1       -0.2252
      7 C         142.7064  140.2063  167.0549 C.2     1  UNL1        0.2563
      8 O         142.4546  138.7583  166.7553 O.2     1  UNL1       -0.2694
      9 C         143.8163  140.6529  164.6647 C.2     1  UNL1        0.2459
     10 O         143.6969  139.2729  164.0890 O.2     1  UNL1       -0.2730
     11 C         142.3036  140.7787  168.3817 C.ar    1  UNL1        0.0736
     12 C         142.6862  140.0746  169.6496 C.ar    1  UNL1        0.1034
     13 N         142.2834  140.6469  170.9763 N.ar    1  UNL1       -0.2417
     14 C         141.4980  141.9234  171.0350 C.ar    1  UNL1        0.1055
     15 C         141.1153  142.6276  169.7671 C.ar    1  UNL1        0.0539
     16 BR        140.3299  143.9042  169.8259 Br      1  UNL1       -0.0474
     17 C         141.5181  142.0553  168.4404 C.ar    1  UNL1        0.0143
     18 C         144.0891  141.9881  161.4040 C.3     1  UNL1        0.1151
     19 N         141.4418  142.0023  161.7735 N.ar    1  UNL1       -0.3070
     20 C         140.3854  143.0653  161.8369 C.ar    1  UNL1        0.1786
     21 N         141.0523  144.3941  161.6377 N.ar    1  UNL1       -0.2226
     22 C         142.5210  144.1523  161.4513 C.ar    1  UNL1        0.1147
     23 C         142.7617  142.6741  161.5353 C.ar    1  UNL1        0.0739
     24 C         141.2178  140.5266  161.9224 C.3     1  UNL1        0.1340
     25 C         138.7283  138.9610  165.3285 C.ar    1  UNL1        0.0684
     26 C         138.9043  138.1370  164.0875 C.ar    1  UNL1        0.0100
     27 C         139.7341  138.6589  162.9521 C.ar    1  UNL1       -0.0017
     28 C         140.3880  140.0048  163.0577 C.ar    1  UNL1        0.0005
     29 C         140.2120  140.8287  164.2987 C.ar    1  UNL1       -0.0017
     30 C         139.3822  140.3068  165.4341 C.ar    1  UNL1        0.0100
     31 N         137.0687  137.9172  167.5992 N.1     1  UNL1       -0.1908
     32 C         137.8985  138.4391  166.4638 C.1     1  UNL1        0.1004
@<TRIPOS>BOND
     1    31    32    3
     2    32    25    1
     3    25    26   ar
     4    26    27   ar
     5    27    28   ar
     6    28    24    1
     7    24    19    1
     8    19    20   ar
     9    20    21   ar
    10    21    22   ar
    11    22    23   ar
    12    23    18    1
    13    18     1    1
    14     3     1    1
    15     3     4    1
    16     4     5    1
    17     5     6    1
    18     6     7   am
    19     7     8    2
    20     7    11    1
    21    11    12   ar
    22    12    13   ar
    23    13    14   ar
    24    14    15   ar
    25    15    16    1
    26    15    17   ar
    27     6     9   am
    28     9    10    2
    29    28    29   ar
    30    29    30   ar
    31    30    25   ar
    32    23    19   ar
    33     9     3    1
    34    17    11   ar
    35     1     2    1
@<TRIPOS>MOLECULE
*****
 32 35 0 0 0
SMALL
GASTEIGER

@<TRIPOS>ATOM
      1 N         143.8224  143.6321  162.3418 N.3     1  UNL1       -0.2863
      2 H         142.9804  143.6273  161.7661 H       1  UNL1        0.1240
      3 C         143.3962  143.2755  163.7351 C.3     1  UNL1        0.1341
      4 C         144.3082  142.9332  164.8757 C.3     1  UNL1        0.0471
      5 C         143.4588  142.6447  166.0779 C.3     1  UNL1        0.1031
      6 N         142.0218  142.8087  165.6802 N.am    1  UNL1       -0.2252
      7 C         140.8324  142.6165  166.5737 C.2     1  UNL1        0.2563
      8 O         139.4478  142.8168  166.0326 O.2     1  UNL1       -0.2694
      9 C         141.9831  143.1985  164.2323 C.2     1  UNL1        0.2459
     10 O         140.7481  143.4646  163.4236 O.2     1  UNL1       -0.2730
     11 C         141.0275  142.2240  168.0083 C.ar    1  UNL1        0.0736
     12 C         140.6528  143.1772  169.1041 C.ar    1  UNL1        0.1034
     13 N         140.8479  142.7847  170.5387 N.ar    1  UNL1       -0.2417
     14 C         141.4176  141.4391  170.8773 C.ar    1  UNL1        0.1055
     15 C         141.7923  140.4859  169.7813 C.ar    1  UNL1        0.0539
     16 BR        142.3621  139.1403  170.1199 Br      1  UNL1       -0.0474
     17 C         141.5973  140.8784  168.3468 C.ar    1  UNL1        0.0143
     18 C         144.8388  142.7897  161.6296 C.3     1  UNL1        0.1151
     19 N         144.1064  140.2544  161.2042 N.ar    1  UNL1       -0.3070
     20 C         143.6915  139.4575  160.0030 C.ar    1  UNL1        0.1786
     21 N         143.7215  140.3670  158.8104 N.ar    1  UNL1       -0.2226
     22 C         144.1550  141.7259  159.2746 C.ar    1  UNL1        0.1147
     23 C         144.3928  141.6564  160.7540 C.ar    1  UNL1        0.0739
     24 C         144.2157  139.7398  162.6089 C.3     1  UNL1        0.1340
     25 C         140.5100  139.2143  165.1073 C.ar    1  UNL1        0.0684
     26 C         140.4154  139.8415  163.7481 C.ar    1  UNL1        0.0100
     27 C         141.6506  140.0167  162.9153 C.ar    1  UNL1       -0.0017
     28 C         142.9805  139.5646  163.4417 C.ar    1  UNL1        0.0005
     29 C         143.0751  138.9374  164.8010 C.ar    1  UNL1       -0.0017
     30 C         141.8399  138.7623  165.6338 C.ar    1  UNL1        0.0100
     31 N         138.0396  138.8640  166.7729 N.1     1  UNL1       -0.1908
     32 C         139.2748  139.0392  165.9401 C.1     1  UNL1        0.1004
@<TRIPOS>BOND
     1    31    32    3
     2    32    25    1
     3    25    26   ar
     4    26    27   ar
     5    27    28   ar
     6    28    24    1
     7    24    19    1
     8    19    20   ar
     9    20    21   ar
    10    21    22   ar
    11    22    23   ar
    12    23    18    1
    13    18     1    1
    14     3     1    1
    15     3     4    1
    16     4     5    1
    17     5     6    1
    18     6     7   am
    19     7     8    2
    20     7    11    1
    21    11    12   ar
    22    12    13   ar
    23    13    14   ar
    24    14    15   ar
    25    15    16    1
    26    15    17   ar
    27     6     9   am
    28     9    10    2
    29    28    29   ar
    30    29    30   ar
    31    30    25   ar
    32    23    19   ar
    33     9     3    1
    34    17    11   ar
    35     1     2    1
@<TRIPOS>MOLECULE
*****
 32 35 0 0 0
SMALL
GASTEIGER

@<TRIPOS>ATOM
      1 N         141.7481  137.4781  161.9501 N.3     1  UNL1       -0.2863
      2 H         141.5806  136.4757  162.0374 H       1  UNL1        0.1240
      3 C         141.4109  138.0905  163.2772 C.3     1  UNL1        0.1341
      4 C         142.1808  137.9113  164.5520 C.3     1  UNL1        0.0471
      5 C         141.4904  138.6998  165.6252 C.3     1  UNL1        0.1031
      6 N         140.2938  139.3662  165.0136 N.am    1  UNL1       -0.2252
      7 C         139.3177  140.2534  165.7278 C.2     1  UNL1        0.2563
      8 O         138.1629  140.8522  164.9808 O.2     1  UNL1       -0.2694
      9 C         140.2447  138.9897  163.5625 C.2     1  UNL1        0.2459
     10 O         139.2109  139.4343  162.5707 O.2     1  UNL1       -0.2730
     11 C         139.4964  140.5419  167.1890 C.ar    1  UNL1        0.0736
     12 C         138.8715  139.6416  168.2130 C.ar    1  UNL1        0.1034
     13 N         139.0501  139.9300  169.6741 N.ar    1  UNL1       -0.2417
     14 C         139.8537  141.1188  170.1111 C.ar    1  UNL1        0.1055
     15 C         140.4787  142.0191  169.0870 C.ar    1  UNL1        0.0539
     16 BR        141.2823  143.2079  169.5240 Br      1  UNL1       -0.0474
     17 C         140.3001  141.7307  167.6259 C.ar    1  UNL1        0.0143
     18 C         143.1254  137.6388  161.3780 C.3     1  UNL1        0.1151
     19 N         143.8522  140.0651  160.5237 N.ar    1  UNL1       -0.3070
     20 C         143.9688  140.7264  159.1823 C.ar    1  UNL1        0.1786
     21 N         143.5672  139.7283  158.1370 N.ar    1  UNL1       -0.2226
     22 C         143.2023  138.4502  158.8323 C.ar    1  UNL1        0.1147
     23 C         143.3785  138.6583  160.3073 C.ar    1  UNL1        0.0739
     24 C         144.1559  140.6992  161.8487 C.3     1  UNL1        0.1340
     25 C         140.9874  143.0756  163.9849 C.ar    1  UNL1        0.0684
     26 C         140.8022  142.7042  162.5435 C.ar    1  UNL1        0.0100
     27 C         141.8584  141.9121  161.8314 C.ar    1  UNL1       -0.0017
     28 C         143.0997  141.4913  162.5607 C.ar    1  UNL1        0.0005
     29 C         143.2849  141.8627  164.0021 C.ar    1  UNL1       -0.0017
     30 C         142.2287  142.6548  164.7142 C.ar    1  UNL1        0.0100
     31 N         138.8751  144.6598  165.4090 N.1     1  UNL1       -0.1908
     32 C         139.9312  143.8677  164.6970 C.1     1  UNL1        0.1004
@<TRIPOS>BOND
     1    31    32    3
     2    32    25    1
     3    25    26   ar
     4    26    27   ar
     5    27    28   ar
     6    28    24    1
     7    24    19    1
     8    19    20   ar
     9    20    21   ar
    10    21    22   ar
    11    22    23   ar
    12    23    18    1
    13    18     1    1
    14     3     1    1
    15     3     4    1
    16     4     5    1
    17     5     6    1
    18     6     7   am
    19     7     8    2
    20     7    11    1
    21    11    12   ar
    22    12    13   ar
    23    13    14   ar
    24    14    15   ar
    25    15    16    1
    26    15    17   ar
    27     6     9   am
    28     9    10    2
    29    28    29   ar
    30    29    30   ar
    31    30    25   ar
    32    23    19   ar
    33     9     3    1
    34    17    11   ar
    35     1     2    1
@<TRIPOS>MOLECULE
*****
 32 35 0 0 0
SMALL
GASTEIGER

@<TRIPOS>ATOM
      1 N         138.4598  139.9110  165.8585 N.3     1  UNL1       -0.2863
      2 H         138.0024  140.7565  166.1996 H       1  UNL1        0.1240
      3 C         138.9498  140.2125  164.4732 C.3     1  UNL1        0.1341
      4 C         140.1363  139.5867  163.8020 C.3     1  UNL1        0.0471
      5 C         140.2590  140.1801  162.4298 C.3     1  UNL1        0.1031
      6 N         139.1483  141.1726  162.2531 N.am    1  UNL1       -0.2252
      7 C         138.8917  141.9998  161.0284 C.2     1  UNL1        0.2563
      8 O         137.7359  142.9554  160.9974 O.2     1  UNL1       -0.2694
      9 C         138.3391  141.1926  163.5159 C.2     1  UNL1        0.2459
     10 O         137.1314  142.0434  163.7759 O.2     1  UNL1       -0.2730
     11 C         139.7911  141.8716  159.8347 C.ar    1  UNL1        0.0736
     12 C         139.5134  140.8263  158.7954 C.ar    1  UNL1        0.1034
     13 N         140.4127  140.6980  157.6018 N.ar    1  UNL1       -0.2417
     14 C         141.5896  141.6150  157.4475 C.ar    1  UNL1        0.1055
     15 C         141.8673  142.6604  158.4868 C.ar    1  UNL1        0.0539
     16 BR        143.0443  143.5774  158.3325 Br      1  UNL1       -0.0474
     17 C         140.9680  142.7887  159.6805 C.ar    1  UNL1        0.0143
     18 C         139.4293  139.4847  166.9208 C.3     1  UNL1        0.1151
     19 N         140.7178  141.4760  168.1535 N.ar    1  UNL1       -0.3070
     20 C         140.6417  142.1083  169.5116 C.ar    1  UNL1        0.1786
     21 N         139.5732  141.4021  170.2925 N.ar    1  UNL1       -0.2226
     22 C         138.9889  140.3333  169.4170 C.ar    1  UNL1        0.1147
     23 C         139.6964  140.3790  168.0951 C.ar    1  UNL1        0.0739
     24 C         141.6514  141.8712  167.0480 C.3     1  UNL1        0.1340
     25 C         140.1869  144.4901  163.6945 C.ar    1  UNL1        0.0684
     26 C         139.4007  144.3928  164.9682 C.ar    1  UNL1        0.0100
     27 C         139.8889  143.5198  166.0861 C.ar    1  UNL1       -0.0017
     28 C         141.1632  142.7442  165.9302 C.ar    1  UNL1        0.0005
     29 C         141.9494  142.8415  164.6565 C.ar    1  UNL1       -0.0017
     30 C         141.4613  143.7145  163.5386 C.ar    1  UNL1        0.0100
     31 N         139.2105  146.2361  161.4588 N.1     1  UNL1       -0.1908
     32 C         139.6987  145.3631  162.5767 C.1     1  UNL1        0.1004
@<TRIPOS>BOND
     1    31    32    3
     2    32    25    1
     3    25    26   ar
     4    26    27   ar
     5    27    28   ar
     6    28    24    1
     7    24    19    1
     8    19    20   ar
     9    20    21   ar
    10    21    22   ar
    11    22    23   ar
    12    23    18    1
    13    18     1    1
    14     3     1    1
    15     3     4    1
    16     4     5    1
    17     5     6    1
    18     6     7   am
    19     7     8    2
    20     7    11    1
    21    11    12   ar
    22    12    13   ar
    23    13    14   ar
    24    14    15   ar
    25    15    16    1
    26    15    17   ar
    27     6     9   am
    28     9    10    2
    29    28    29   ar
    30    29    30   ar
    31    30    25   ar
    32    23    19   ar
    33     9     3    1
    34    17    11   ar
    35     1     2    1
