@<TRIPOS>MOLECULE
*****
 47 52 0 0 0
SMALL
GASTEIGER

@<TRIPOS>ATOM
      1 C         142.5754  143.4953  158.8927 C.ar    1  UNL1        0.1784
      2 C         142.5356  142.0775  159.3809 C.ar    1  UNL1        0.0364
      3 C         142.7835  140.9481  158.4254 C.ar    1  UNL1       -0.0173
      4 C         143.0711  141.2364  156.9818 C.ar    1  UNL1       -0.0009
      5 C         143.1109  142.6543  156.4936 C.ar    1  UNL1        0.0395
      6 C         142.8630  143.7837  157.4491 C.ar    1  UNL1        0.1683
      7 O         142.9027  145.2015  156.9610 O.3     1  UNL1       -0.5028
      8 H         143.0824  145.3817  156.0592 H       1  UNL1        0.2923
      9 O         142.3275  144.6248  159.8483 O.3     1  UNL1       -0.4505
     10 C         140.2427  143.8465  163.7595 C.ar    1  UNL1       -0.0203
     11 C         139.4793  144.4244  162.6047 C.ar    1  UNL1       -0.0011
     12 C         140.1743  144.6838  161.3010 C.ar    1  UNL1        0.0372
     13 C         141.6325  144.3654  161.1520 C.ar    1  UNL1        0.1454
     14 C         142.3958  143.7875  162.3068 C.ar    1  UNL1        0.0372
     15 C         141.7009  143.5281  163.6105 C.ar    1  UNL1       -0.0011
     16 C         139.5477  143.5871  165.0633 C.3     1  UNL1        0.0468
     17 C         141.8083  140.5076  168.8916 C.ar    1  UNL1        0.1721
     18 C         140.7621  139.6556  168.2362 C.ar    1  UNL1        0.0356
     19 C         139.9355  140.2124  167.1153 C.ar    1  UNL1       -0.0203
     20 C         140.1549  141.6213  166.6498 C.ar    1  UNL1       -0.0081
     21 C         141.2011  142.4734  167.3051 C.ar    1  UNL1        0.0368
     22 C         142.0278  141.9165  168.4260 C.ar    1  UNL1        0.1721
     23 C         139.3282  142.1782  165.5288 C.3     1  UNL1        0.0843
     24 N         138.2821  141.3262  164.8735 N.3     1  UNL1       -0.2685
     25 C         137.4554  141.8831  163.7525 C.3     1  UNL1        0.0899
     26 C         138.0625  139.9172  165.3390 C.3     1  UNL1        0.0771
     27 C         138.8892  139.3603  166.4600 C.3     1  UNL1        0.0435
     28 C         142.8148  138.4676  170.1468 C.3     1  UNL1        0.2526
     29 O         142.6350  139.9507  170.0125 O.3     1  UNL1       -0.4684
     30 O         143.0740  142.7686  169.0814 O.3     1  UNL1       -0.4684
     31 C         142.8982  143.2106  170.5039 C.3     1  UNL1        0.2526
     32 C         142.7437  139.5303  158.9136 C.3     1  UNL1        0.0469
     33 C         141.7589  139.1286  159.9712 C.3     1  UNL1        0.0843
     34 C         142.1405  139.2064  161.4198 C.ar    1  UNL1       -0.0081
     35 C         143.5070  139.6859  161.8107 C.ar    1  UNL1        0.0368
     36 C         143.8886  139.7636  163.2592 C.ar    1  UNL1        0.1721
     37 C         142.9038  139.3619  164.3169 C.ar    1  UNL1        0.1721
     38 C         141.5373  138.8824  163.9260 C.ar    1  UNL1        0.0356
     39 C         141.1556  138.8046  162.4774 C.ar    1  UNL1       -0.0203
     40 C         139.7892  138.3252  162.0866 C.3     1  UNL1        0.0435
     41 C         139.4075  138.2474  160.6381 C.3     1  UNL1        0.0771
     42 N         140.3924  138.6491  159.5804 N.3     1  UNL1       -0.2685
     43 C         140.0107  138.5713  158.1318 C.3     1  UNL1        0.0899
     44 O         145.2551  140.2431  163.6500 O.3     1  UNL1       -0.4684
     45 C         145.6137  141.6917  163.4979 C.3     1  UNL1        0.2526
     46 O         143.2854  139.4397  165.7654 O.3     1  UNL1       -0.4684
     47 C         143.7723  138.2138  166.4796 C.3     1  UNL1        0.2526
@<TRIPOS>BOND
     1    28    29    1
     2    29    17    1
     3    17    18   ar
     4    18    19   ar
     5    19    20   ar
     6    20    21   ar
     7    21    22   ar
     8    22    30    1
     9    30    31    1
    10    20    23    1
    11    23    16    1
    12    16    10    1
    13    10    11   ar
    14    11    12   ar
    15    12    13   ar
    16    13     9    1
    17     9     1    1
    18     1     2   ar
    19     2     3   ar
    20     3    32    1
    21    33    32    1
    22    33    34    1
    23    34    35   ar
    24    35    36   ar
    25    36    44    1
    26    44    45    1
    27    36    37   ar
    28    37    46    1
    29    46    47    1
    30    37    38   ar
    31    38    39   ar
    32    39    40    1
    33    40    41    1
    34    41    42    1
    35    42    43    1
    36     3     4   ar
    37     4     5   ar
    38     5     6   ar
    39     6     7    1
    40    13    14   ar
    41    14    15   ar
    42    23    24    1
    43    24    25    1
    44    24    26    1
    45    26    27    1
    46    22    17   ar
    47    15    10   ar
    48    27    19    1
    49     6     1   ar
    50    42    33    1
    51    39    34   ar
    52     7     8    1
@<TRIPOS>MOLECULE
*****
 47 52 0 0 0
SMALL
GASTEIGER

@<TRIPOS>ATOM
      1 C         143.4415  142.4708  159.2693 C.ar    1  UNL1        0.1784
      2 C         141.9758  142.5265  159.5828 C.ar    1  UNL1        0.0364
      3 C         141.0095  143.0486  158.5611 C.ar    1  UNL1       -0.0173
      4 C         141.5092  143.5152  157.2259 C.ar    1  UNL1       -0.0009
      5 C         142.9751  143.4595  156.9125 C.ar    1  UNL1        0.0395
      6 C         143.9412  142.9374  157.9342 C.ar    1  UNL1        0.1683
      7 O         145.4071  142.8817  157.6207 O.3     1  UNL1       -0.5028
      8 H         145.7192  143.1731  156.7867 H       1  UNL1        0.2923
      9 O         144.4078  141.9486  160.2911 O.3     1  UNL1       -0.4505
     10 C         142.9450  139.3071  163.6276 C.ar    1  UNL1       -0.0203
     11 C         142.8138  140.7973  163.7383 C.ar    1  UNL1       -0.0011
     12 C         143.3014  141.6778  162.6262 C.ar    1  UNL1        0.0372
     13 C         143.9202  141.0681  161.4032 C.ar    1  UNL1        0.1454
     14 C         144.0513  139.5780  161.2926 C.ar    1  UNL1        0.0372
     15 C         143.5637  138.6975  162.4047 C.ar    1  UNL1       -0.0011
     16 C         142.4574  138.4266  164.7398 C.3     1  UNL1        0.0468
     17 C         140.6077  140.6361  169.3166 C.ar    1  UNL1        0.1721
     18 C         139.3981  140.1762  168.5581 C.ar    1  UNL1        0.0356
     19 C         139.5581  139.5089  167.2242 C.ar    1  UNL1       -0.0203
     20 C         140.9277  139.3014  166.6489 C.ar    1  UNL1       -0.0081
     21 C         142.1373  139.7613  167.4074 C.ar    1  UNL1        0.0368
     22 C         141.9773  140.4286  168.7413 C.ar    1  UNL1        0.1721
     23 C         141.0877  138.6341  165.3151 C.3     1  UNL1        0.0843
     24 N         139.8781  138.1743  164.5566 N.3     1  UNL1       -0.2685
     25 C         140.0382  137.5069  163.2228 C.3     1  UNL1        0.0899
     26 C         138.5084  138.3817  165.1319 C.3     1  UNL1        0.0771
     27 C         138.3484  139.0490  166.4657 C.3     1  UNL1        0.0435
     28 C         139.8553  142.6789  170.7346 C.3     1  UNL1        0.2526
     29 O         140.4476  141.3034  170.6504 O.3     1  UNL1       -0.4684
     30 O         143.1870  140.8884  169.4998 O.3     1  UNL1       -0.4684
     31 C         143.5806  142.3357  169.4779 C.3     1  UNL1        0.2526
     32 C         139.5438  143.1043  158.8746 C.3     1  UNL1        0.0469
     33 C         138.9458  142.1253  159.8411 C.3     1  UNL1        0.0843
     34 C         139.0222  142.3859  161.3163 C.ar    1  UNL1       -0.0081
     35 C         139.6965  143.6255  161.8250 C.ar    1  UNL1        0.0368
     36 C         139.7729  143.8861  163.3002 C.ar    1  UNL1        0.1721
     37 C         139.1749  142.9071  164.2667 C.ar    1  UNL1        0.1721
     38 C         138.5006  141.6676  163.7580 C.ar    1  UNL1        0.0356
     39 C         138.4242  141.4070  162.2827 C.ar    1  UNL1       -0.0203
     40 C         137.7499  140.1674  161.7741 C.3     1  UNL1        0.0435
     41 C         137.6735  139.9069  160.2989 C.3     1  UNL1        0.0771
     42 N         138.2715  140.8858  159.3324 N.3     1  UNL1       -0.2685
     43 C         138.1951  140.6252  157.8571 C.3     1  UNL1        0.0899
     44 O         140.4472  145.1256  163.8089 O.3     1  UNL1       -0.4684
     45 C         141.9161  145.3275  163.5813 C.3     1  UNL1        0.2526
     46 O         139.2513  143.1677  165.7419 O.3     1  UNL1       -0.4684
     47 C         140.5557  143.0083  166.4651 C.3     1  UNL1        0.2526
@<TRIPOS>BOND
     1    28    29    1
     2    29    17    1
     3    17    18   ar
     4    18    19   ar
     5    19    20   ar
     6    20    21   ar
     7    21    22   ar
     8    22    30    1
     9    30    31    1
    10    20    23    1
    11    23    16    1
    12    16    10    1
    13    10    11   ar
    14    11    12   ar
    15    12    13   ar
    16    13     9    1
    17     9     1    1
    18     1     2   ar
    19     2     3   ar
    20     3    32    1
    21    33    32    1
    22    33    34    1
    23    34    35   ar
    24    35    36   ar
    25    36    44    1
    26    44    45    1
    27    36    37   ar
    28    37    46    1
    29    46    47    1
    30    37    38   ar
    31    38    39   ar
    32    39    40    1
    33    40    41    1
    34    41    42    1
    35    42    43    1
    36     3     4   ar
    37     4     5   ar
    38     5     6   ar
    39     6     7    1
    40    13    14   ar
    41    14    15   ar
    42    23    24    1
    43    24    25    1
    44    24    26    1
    45    26    27    1
    46    22    17   ar
    47    15    10   ar
    48    27    19    1
    49     6     1   ar
    50    42    33    1
    51    39    34   ar
    52     7     8    1
@<TRIPOS>MOLECULE
*****
 47 52 0 0 0
SMALL
GASTEIGER

@<TRIPOS>ATOM
      1 C         137.7719  141.1717  158.0157 C.ar    1  UNL1        0.1784
      2 C         138.8209  142.1681  158.4114 C.ar    1  UNL1        0.0364
      3 C         139.3482  143.1433  157.4009 C.ar    1  UNL1       -0.0173
      4 C         138.8265  143.1220  155.9947 C.ar    1  UNL1       -0.0009
      5 C         137.7774  142.1255  155.5990 C.ar    1  UNL1        0.0395
      6 C         137.2501  141.1504  156.6095 C.ar    1  UNL1        0.1683
      7 O         136.2011  140.1539  156.2138 O.3     1  UNL1       -0.5028
      8 H         135.8751  140.1406  155.3354 H       1  UNL1        0.2923
      9 O         137.2446  140.1965  159.0261 O.3     1  UNL1       -0.4505
     10 C         140.0580  138.2284  161.9349 C.ar    1  UNL1       -0.0203
     11 C         140.4233  138.3192  160.4829 C.ar    1  UNL1       -0.0011
     12 C         139.4855  138.9753  159.5133 C.ar    1  UNL1        0.0372
     13 C         138.1824  139.5404  159.9957 C.ar    1  UNL1        0.1454
     14 C         137.8172  139.4495  161.4477 C.ar    1  UNL1        0.0372
     15 C         138.7550  138.7935  162.4173 C.ar    1  UNL1       -0.0011
     16 C         140.9958  137.5723  162.9045 C.3     1  UNL1        0.0468
     17 C         141.2350  140.2886  167.5751 C.ar    1  UNL1        0.1721
     18 C         142.5746  140.4632  166.9232 C.ar    1  UNL1        0.0356
     19 C         142.8497  139.8277  165.5926 C.ar    1  UNL1       -0.0203
     20 C         141.7852  139.0177  164.9139 C.ar    1  UNL1       -0.0081
     21 C         140.4456  138.8432  165.5658 C.ar    1  UNL1        0.0368
     22 C         140.1705  139.4786  166.8964 C.ar    1  UNL1        0.1721
     23 C         142.0603  138.3823  163.5833 C.3     1  UNL1        0.0843
     24 N         143.3999  138.5568  162.9314 N.3     1  UNL1       -0.2685
     25 C         143.6750  137.9214  161.6008 C.3     1  UNL1        0.0899
     26 C         144.4645  139.3669  163.6101 C.3     1  UNL1        0.0771
     27 C         144.1894  140.0023  164.9407 C.3     1  UNL1        0.0435
     28 C         140.4796  142.3434  168.9741 C.3     1  UNL1        0.2526
     29 O         140.9599  140.9240  168.9057 O.3     1  UNL1       -0.4684
     30 O         138.8309  139.3040  167.5483 O.3     1  UNL1       -0.4684
     31 C         137.7531  138.5277  166.8513 C.3     1  UNL1        0.2526
     32 C         140.3973  144.1397  157.7966 C.3     1  UNL1        0.0469
     33 C         141.5703  143.7051  158.6243 C.3     1  UNL1        0.0843
     34 C         141.5241  143.8359  160.1178 C.ar    1  UNL1       -0.0081
     35 C         140.3047  144.4015  160.7838 C.ar    1  UNL1        0.0368
     36 C         140.2584  144.5323  162.2773 C.ar    1  UNL1        0.1721
     37 C         141.4315  144.0977  163.1050 C.ar    1  UNL1        0.1721
     38 C         142.6508  143.5322  162.4391 C.ar    1  UNL1        0.0356
     39 C         142.6971  143.4013  160.9455 C.ar    1  UNL1       -0.0203
     40 C         143.9164  142.8358  160.2796 C.3     1  UNL1        0.0435
     41 C         143.9627  142.7050  158.7861 C.3     1  UNL1        0.0771
     42 N         142.7896  143.1396  157.9584 N.3     1  UNL1       -0.2685
     43 C         142.8360  143.0088  156.4648 C.3     1  UNL1        0.0899
     44 O         139.0391  145.0978  162.9432 O.3     1  UNL1       -0.4684
     45 C         137.8029  144.2594  163.0810 C.3     1  UNL1        0.2526
     46 O         141.3852  144.2285  164.5985 O.3     1  UNL1       -0.4684
     47 C         140.5778  143.2605  165.4115 C.3     1  UNL1        0.2526
@<TRIPOS>BOND
     1    28    29    1
     2    29    17    1
     3    17    18   ar
     4    18    19   ar
     5    19    20   ar
     6    20    21   ar
     7    21    22   ar
     8    22    30    1
     9    30    31    1
    10    20    23    1
    11    23    16    1
    12    16    10    1
    13    10    11   ar
    14    11    12   ar
    15    12    13   ar
    16    13     9    1
    17     9     1    1
    18     1     2   ar
    19     2     3   ar
    20     3    32    1
    21    33    32    1
    22    33    34    1
    23    34    35   ar
    24    35    36   ar
    25    36    44    1
    26    44    45    1
    27    36    37   ar
    28    37    46    1
    29    46    47    1
    30    37    38   ar
    31    38    39   ar
    32    39    40    1
    33    40    41    1
    34    41    42    1
    35    42    43    1
    36     3     4   ar
    37     4     5   ar
    38     5     6   ar
    39     6     7    1
    40    13    14   ar
    41    14    15   ar
    42    23    24    1
    43    24    25    1
    44    24    26    1
    45    26    27    1
    46    22    17   ar
    47    15    10   ar
    48    27    19    1
    49     6     1   ar
    50    42    33    1
    51    39    34   ar
    52     7     8    1
@<TRIPOS>MOLECULE
*****
 47 52 0 0 0
SMALL
GASTEIGER

@<TRIPOS>ATOM
      1 C         140.1098  143.4889  158.9612 C.ar    1  UNL1        0.1784
      2 C         140.0675  142.0408  159.3498 C.ar    1  UNL1        0.0364
      3 C         139.6514  141.0067  158.3460 C.ar    1  UNL1       -0.0173
      4 C         139.2776  141.4208  156.9536 C.ar    1  UNL1       -0.0009
      5 C         139.3199  142.8690  156.5650 C.ar    1  UNL1        0.0395
      6 C         139.7360  143.9030  157.5688 C.ar    1  UNL1        0.1683
      7 O         139.7783  145.3513  157.1802 O.3     1  UNL1       -0.5028
      8 H         139.5448  145.6100  156.3104 H       1  UNL1        0.2923
      9 O         140.5259  144.5230  159.9650 O.3     1  UNL1       -0.4505
     10 C         142.8941  143.3108  163.5944 C.ar    1  UNL1       -0.0203
     11 C         143.5987  143.6073  162.3037 C.ar    1  UNL1       -0.0011
     12 C         142.8093  144.0114  161.0940 C.ar    1  UNL1        0.0372
     13 C         141.3153  144.1189  161.1748 C.ar    1  UNL1        0.1454
     14 C         140.6107  143.8224  162.4654 C.ar    1  UNL1        0.0372
     15 C         141.4001  143.4183  163.6752 C.ar    1  UNL1       -0.0011
     16 C         143.6835  142.9067  164.8041 C.3     1  UNL1        0.0468
     17 C         140.9368  140.6277  168.8676 C.ar    1  UNL1        0.1721
     18 C         141.7150  139.5213  168.2193 C.ar    1  UNL1        0.0356
     19 C         142.5962  139.8144  167.0414 C.ar    1  UNL1       -0.0203
     20 C         142.6992  141.2140  166.5117 C.ar    1  UNL1       -0.0081
     21 C         141.9210  142.3204  167.1600 C.ar    1  UNL1        0.0368
     22 C         141.0398  142.0272  168.3379 C.ar    1  UNL1        0.1721
     23 C         143.5804  141.5072  165.3338 C.3     1  UNL1        0.0843
     24 N         144.3587  140.4008  164.6856 N.3     1  UNL1       -0.2685
     25 C         145.2399  140.6939  163.5077 C.3     1  UNL1        0.0899
     26 C         144.2557  139.0011  165.2153 C.3     1  UNL1        0.0771
     27 C         143.3744  138.7080  166.3932 C.3     1  UNL1        0.0435
     28 C         138.5699  140.2348  169.8643 C.3     1  UNL1        0.2526
     29 O         140.0555  140.3345  170.0455 O.3     1  UNL1       -0.4684
     30 O         140.2615  143.1337  168.9861 O.3     1  UNL1       -0.4684
     31 C         140.8631  143.9089  170.1206 C.3     1  UNL1        0.2526
     32 C         139.6091  139.5585  158.7346 C.3     1  UNL1        0.0469
     33 C         140.5462  139.0355  159.7826 C.3     1  UNL1        0.0843
     34 C         140.2379  139.2438  161.2357 C.ar    1  UNL1       -0.0081
     35 C         138.9924  139.9750  161.6409 C.ar    1  UNL1        0.0368
     36 C         138.6841  140.1833  163.0940 C.ar    1  UNL1        0.1721
     37 C         139.6212  139.6603  164.1420 C.ar    1  UNL1        0.1721
     38 C         140.8667  138.9291  163.7369 C.ar    1  UNL1        0.0356
     39 C         141.1750  138.7208  162.2837 C.ar    1  UNL1       -0.0203
     40 C         142.4205  137.9895  161.8786 C.3     1  UNL1        0.0435
     41 C         142.7288  137.7813  160.4255 C.3     1  UNL1        0.0771
     42 N         141.7916  138.3043  159.3775 N.3     1  UNL1       -0.2685
     43 C         142.1000  138.0960  157.9243 C.3     1  UNL1        0.0899
     44 O         137.4387  140.9145  163.4991 O.3     1  UNL1       -0.4684
     45 C         137.4966  142.3818  163.8056 C.3     1  UNL1        0.2526
     46 O         139.3129  139.8685  165.5951 O.3     1  UNL1       -0.4684
     47 C         138.3210  138.9805  166.2861 C.3     1  UNL1        0.2526
@<TRIPOS>BOND
     1    28    29    1
     2    29    17    1
     3    17    18   ar
     4    18    19   ar
     5    19    20   ar
     6    20    21   ar
     7    21    22   ar
     8    22    30    1
     9    30    31    1
    10    20    23    1
    11    23    16    1
    12    16    10    1
    13    10    11   ar
    14    11    12   ar
    15    12    13   ar
    16    13     9    1
    17     9     1    1
    18     1     2   ar
    19     2     3   ar
    20     3    32    1
    21    33    32    1
    22    33    34    1
    23    34    35   ar
    24    35    36   ar
    25    36    44    1
    26    44    45    1
    27    36    37   ar
    28    37    46    1
    29    46    47    1
    30    37    38   ar
    31    38    39   ar
    32    39    40    1
    33    40    41    1
    34    41    42    1
    35    42    43    1
    36     3     4   ar
    37     4     5   ar
    38     5     6   ar
    39     6     7    1
    40    13    14   ar
    41    14    15   ar
    42    23    24    1
    43    24    25    1
    44    24    26    1
    45    26    27    1
    46    22    17   ar
    47    15    10   ar
    48    27    19    1
    49     6     1   ar
    50    42    33    1
    51    39    34   ar
    52     7     8    1
@<TRIPOS>MOLECULE
*****
 47 52 0 0 0
SMALL
GASTEIGER

@<TRIPOS>ATOM
      1 C         142.6987  138.5704  158.8615 C.ar    1  UNL1        0.1784
      2 C         143.0961  139.9903  159.1370 C.ar    1  UNL1        0.0364
      3 C         143.6036  140.8567  158.0226 C.ar    1  UNL1       -0.0173
      4 C         143.7137  140.3032  156.6328 C.ar    1  UNL1       -0.0009
      5 C         143.3162  138.8832  156.3574 C.ar    1  UNL1        0.0395
      6 C         142.8088  138.0169  157.4717 C.ar    1  UNL1        0.1683
      7 O         142.4113  136.5969  157.1963 O.3     1  UNL1       -0.5028
      8 H         142.4801  136.2511  156.3282 H       1  UNL1        0.2923
      9 O         142.1912  137.7039  159.9759 O.3     1  UNL1       -0.4505
     10 C         139.4934  139.4443  163.1291 C.ar    1  UNL1       -0.0203
     11 C         140.9567  139.2681  163.4080 C.ar    1  UNL1       -0.0011
     12 C         141.8560  138.6880  162.3569 C.ar    1  UNL1        0.0372
     13 C         141.2919  138.2840  161.0270 C.ar    1  UNL1        0.1454
     14 C         139.8287  138.4602  160.7481 C.ar    1  UNL1        0.0372
     15 C         138.9294  139.0403  161.7992 C.ar    1  UNL1       -0.0011
     16 C         138.5941  140.0244  164.1802 C.3     1  UNL1        0.0468
     17 C         140.7421  142.1325  168.6737 C.ar    1  UNL1        0.1721
     18 C         140.3235  143.2974  167.8266 C.ar    1  UNL1        0.0356
     19 C         139.6818  143.0616  166.4914 C.ar    1  UNL1       -0.0203
     20 C         139.4588  141.6609  166.0034 C.ar    1  UNL1       -0.0081
     21 C         139.8774  140.4960  166.8505 C.ar    1  UNL1        0.0368
     22 C         140.5191  140.7318  168.1857 C.ar    1  UNL1        0.1721
     23 C         138.8171  141.4251  164.6682 C.3     1  UNL1        0.0843
     24 N         138.3985  142.5900  163.8211 N.3     1  UNL1       -0.2685
     25 C         137.7568  142.3542  162.4859 C.3     1  UNL1        0.0899
     26 C         138.6215  143.9908  164.3091 C.3     1  UNL1        0.0771
     27 C         139.2631  144.2266  165.6443 C.3     1  UNL1        0.0435
     28 C         142.7703  142.9353  170.0850 C.3     1  UNL1        0.2526
     29 O         141.3838  142.3683  170.0089 O.3     1  UNL1       -0.4684
     30 O         140.9377  139.5667  169.0328 O.3     1  UNL1       -0.4684
     31 C         142.3934  139.2464  169.2009 C.3     1  UNL1        0.2526
     32 C         144.0010  142.2766  158.2981 C.3     1  UNL1        0.0469
     33 C         143.1428  143.1389  159.1755 C.3     1  UNL1        0.0843
     34 C         143.4103  143.2096  160.6498 C.ar    1  UNL1       -0.0081
     35 C         144.5360  142.4179  161.2466 C.ar    1  UNL1        0.0368
     36 C         144.8035  142.4886  162.7208 C.ar    1  UNL1        0.1721
     37 C         143.9453  143.3509  163.5983 C.ar    1  UNL1        0.1721
     38 C         142.8197  144.1425  163.0016 C.ar    1  UNL1        0.0356
     39 C         142.5521  144.0719  161.5273 C.ar    1  UNL1       -0.0203
     40 C         141.4265  144.8635  160.9305 C.3     1  UNL1        0.0435
     41 C         141.1590  144.7928  159.4563 C.3     1  UNL1        0.0771
     42 N         142.0172  143.9305  158.5788 N.3     1  UNL1       -0.2685
     43 C         141.7496  143.8599  157.1045 C.3     1  UNL1        0.0899
     44 O         145.9292  141.6970  163.3176 O.3     1  UNL1       -0.4684
     45 C         145.6373  140.4523  164.1023 C.3     1  UNL1        0.2526
     46 O         144.2128  143.4216  165.0726 O.3     1  UNL1       -0.4684
     47 C         143.4128  142.5789  166.0212 C.3     1  UNL1        0.2526
@<TRIPOS>BOND
     1    28    29    1
     2    29    17    1
     3    17    18   ar
     4    18    19   ar
     5    19    20   ar
     6    20    21   ar
     7    21    22   ar
     8    22    30    1
     9    30    31    1
    10    20    23    1
    11    23    16    1
    12    16    10    1
    13    10    11   ar
    14    11    12   ar
    15    12    13   ar
    16    13     9    1
    17     9     1    1
    18     1     2   ar
    19     2     3   ar
    20     3    32    1
    21    33    32    1
    22    33    34    1
    23    34    35   ar
    24    35    36   ar
    25    36    44    1
    26    44    45    1
    27    36    37   ar
    28    37    46    1
    29    46    47    1
    30    37    38   ar
    31    38    39   ar
    32    39    40    1
    33    40    41    1
    34    41    42    1
    35    42    43    1
    36     3     4   ar
    37     4     5   ar
    38     5     6   ar
    39     6     7    1
    40    13    14   ar
    41    14    15   ar
    42    23    24    1
    43    24    25    1
    44    24    26    1
    45    26    27    1
    46    22    17   ar
    47    15    10   ar
    48    27    19    1
    49     6     1   ar
    50    42    33    1
    51    39    34   ar
    52     7     8    1
@<TRIPOS>MOLECULE
*****
 47 52 0 0 0
SMALL
GASTEIGER

@<TRIPOS>ATOM
      1 C         141.7767  144.6799  159.2348 C.ar    1  UNL1        0.1784
      2 C         142.7660  143.5577  159.3445 C.ar    1  UNL1        0.0364
      3 C         142.9183  142.5793  158.2177 C.ar    1  UNL1       -0.0173
      4 C         142.0813  142.7231  156.9812 C.ar    1  UNL1       -0.0009
      5 C         141.0920  143.8453  156.8716 C.ar    1  UNL1        0.0395
      6 C         140.9397  144.8237  157.9983 C.ar    1  UNL1        0.1683
      7 O         139.9504  145.9459  157.8887 O.3     1  UNL1       -0.5028
      8 H         139.4276  146.0357  157.1163 H       1  UNL1        0.2923
      9 O         141.6244  145.6583  160.3615 O.3     1  UNL1       -0.4505
     10 C         140.0854  144.2688  164.3554 C.ar    1  UNL1       -0.0203
     11 C         141.5166  144.0261  163.9774 C.ar    1  UNL1       -0.0011
     12 C         142.0296  144.4893  162.6461 C.ar    1  UNL1        0.0372
     13 C         141.1114  145.1951  161.6928 C.ar    1  UNL1        0.1454
     14 C         139.6803  145.4377  162.0708 C.ar    1  UNL1        0.0372
     15 C         139.1672  144.9746  163.4021 C.ar    1  UNL1       -0.0011
     16 C         139.5724  143.8056  165.6866 C.3     1  UNL1        0.0468
     17 C         138.4557  139.1684  163.1371 C.ar    1  UNL1        0.1721
     18 C         138.9645  138.7846  164.4950 C.ar    1  UNL1        0.0356
     19 C         139.3708  139.8479  165.4718 C.ar    1  UNL1       -0.0203
     20 C         139.2684  141.2951  165.0908 C.ar    1  UNL1       -0.0081
     21 C         138.7597  141.6789  163.7330 C.ar    1  UNL1        0.0368
     22 C         138.3533  140.6156  162.7561 C.ar    1  UNL1        0.1721
     23 C         139.6748  142.3584  166.0676 C.3     1  UNL1        0.0843
     24 N         140.1835  141.9746  167.4255 N.3     1  UNL1       -0.2685
     25 C         140.5899  143.0379  168.4023 C.3     1  UNL1        0.0899
     26 C         140.2859  140.5274  167.8066 C.3     1  UNL1        0.0771
     27 C         139.8796  139.4641  166.8297 C.3     1  UNL1        0.0435
     28 C         138.8287  137.9135  160.8931 C.3     1  UNL1        0.2526
     29 O         138.0494  138.1051  162.1603 O.3     1  UNL1       -0.4684
     30 O         137.8446  140.9995  161.3982 O.3     1  UNL1       -0.4684
     31 C         138.3418  142.2508  160.7371 C.3     1  UNL1        0.2526
     32 C         143.9076  141.4572  158.3274 C.3     1  UNL1        0.0469
     33 C         143.5094  140.1676  158.9819 C.3     1  UNL1        0.0843
     34 C         143.8170  139.9360  160.4316 C.ar    1  UNL1       -0.0081
     35 C         144.5228  140.9940  161.2269 C.ar    1  UNL1        0.0368
     36 C         144.8304  140.7625  162.6766 C.ar    1  UNL1        0.1721
     37 C         144.4322  139.4729  163.3311 C.ar    1  UNL1        0.1721
     38 C         143.7264  138.4148  162.5359 C.ar    1  UNL1        0.0356
     39 C         143.4188  138.6464  161.0861 C.ar    1  UNL1       -0.0203
     40 C         142.7131  137.5883  160.2909 C.3     1  UNL1        0.0435
     41 C         142.4055  137.8199  158.8412 C.3     1  UNL1        0.0771
     42 N         142.8036  139.1095  158.1867 N.3     1  UNL1       -0.2685
     43 C         142.4960  139.3411  156.7369 C.3     1  UNL1        0.0899
     44 O         145.5362  141.8205  163.4718 O.3     1  UNL1       -0.4684
     45 C         144.8003  142.5695  164.5431 C.3     1  UNL1        0.2526
     46 O         144.7398  139.2413  164.7808 O.3     1  UNL1       -0.4684
     47 C         143.6643  138.7576  165.7078 C.3     1  UNL1        0.2526
@<TRIPOS>BOND
     1    28    29    1
     2    29    17    1
     3    17    18   ar
     4    18    19   ar
     5    19    20   ar
     6    20    21   ar
     7    21    22   ar
     8    22    30    1
     9    30    31    1
    10    20    23    1
    11    23    16    1
    12    16    10    1
    13    10    11   ar
    14    11    12   ar
    15    12    13   ar
    16    13     9    1
    17     9     1    1
    18     1     2   ar
    19     2     3   ar
    20     3    32    1
    21    33    32    1
    22    33    34    1
    23    34    35   ar
    24    35    36   ar
    25    36    44    1
    26    44    45    1
    27    36    37   ar
    28    37    46    1
    29    46    47    1
    30    37    38   ar
    31    38    39   ar
    32    39    40    1
    33    40    41    1
    34    41    42    1
    35    42    43    1
    36     3     4   ar
    37     4     5   ar
    38     5     6   ar
    39     6     7    1
    40    13    14   ar
    41    14    15   ar
    42    23    24    1
    43    24    25    1
    44    24    26    1
    45    26    27    1
    46    22    17   ar
    47    15    10   ar
    48    27    19    1
    49     6     1   ar
    50    42    33    1
    51    39    34   ar
    52     7     8    1
@<TRIPOS>MOLECULE
*****
 47 52 0 0 0
SMALL
GASTEIGER

@<TRIPOS>ATOM
      1 C         140.6635  144.5875  159.0083 C.ar    1  UNL1        0.1784
      2 C         141.7015  143.5076  159.0879 C.ar    1  UNL1        0.0364
      3 C         142.6904  143.3341  157.9734 C.ar    1  UNL1       -0.0173
      4 C         142.6412  144.2406  156.7793 C.ar    1  UNL1       -0.0009
      5 C         141.6032  145.3206  156.6998 C.ar    1  UNL1        0.0395
      6 C         140.6144  145.4940  157.8143 C.ar    1  UNL1        0.1683
      7 O         139.5763  146.5739  157.7347 O.3     1  UNL1       -0.5028
      8 H         139.5456  147.1402  156.9888 H       1  UNL1        0.2923
      9 O         139.6746  144.7609  160.1229 O.3     1  UNL1       -0.4505
     10 C         139.1114  141.4890  163.1605 C.ar    1  UNL1       -0.0203
     11 C         140.2225  142.4830  163.3262 C.ar    1  UNL1       -0.0011
     12 C         140.4102  143.5737  162.3137 C.ar    1  UNL1        0.0372
     13 C         139.4869  143.6703  161.1354 C.ar    1  UNL1        0.1454
     14 C         138.3759  142.6762  160.9698 C.ar    1  UNL1        0.0372
     15 C         138.1881  141.5856  161.9823 C.ar    1  UNL1       -0.0011
     16 C         138.9237  140.3983  164.1730 C.3     1  UNL1        0.0468
     17 C         142.1336  140.7745  168.5095 C.ar    1  UNL1        0.1721
     18 C         142.6415  139.6073  167.7159 C.ar    1  UNL1        0.0356
     19 C         141.9660  139.2215  166.4334 C.ar    1  UNL1       -0.0203
     20 C         140.7826  140.0028  165.9445 C.ar    1  UNL1       -0.0081
     21 C         140.2747  141.1699  166.7381 C.ar    1  UNL1        0.0368
     22 C         140.9502  141.5558  168.0206 C.ar    1  UNL1        0.1721
     23 C         140.1071  139.6170  164.6620 C.3     1  UNL1        0.0843
     24 N         140.6150  138.4499  163.8684 N.3     1  UNL1       -0.2685
     25 C         139.9395  138.0641  162.5858 C.3     1  UNL1        0.0899
     26 C         141.7984  137.6685  164.3573 C.3     1  UNL1        0.0771
     27 C         142.4739  138.0543  165.6398 C.3     1  UNL1        0.0435
     28 C         143.8322  142.2571  169.8004 C.3     1  UNL1        0.2526
     29 O         142.8091  141.1603  169.7920 O.3     1  UNL1       -0.4684
     30 O         140.4423  142.7229  168.8142 O.3     1  UNL1       -0.4684
     31 C         139.8893  142.5093  170.1921 C.3     1  UNL1        0.2526
     32 C         143.7283  142.2542  158.0530 C.3     1  UNL1        0.0469
     33 C         143.5328  141.0930  158.9821 C.3     1  UNL1        0.0843
     34 C         143.7482  141.2674  160.4562 C.ar    1  UNL1       -0.0081
     35 C         144.1592  142.6031  161.0013 C.ar    1  UNL1        0.0368
     36 C         144.3746  142.7775  162.4755 C.ar    1  UNL1        0.1721
     37 C         144.1790  141.6162  163.4046 C.ar    1  UNL1        0.1721
     38 C         143.7681  140.2806  162.8596 C.ar    1  UNL1        0.0356
     39 C         143.5526  140.1061  161.3853 C.ar    1  UNL1       -0.0203
     40 C         143.1417  138.7705  160.8403 C.3     1  UNL1        0.0435
     41 C         142.9262  138.5961  159.3662 C.3     1  UNL1        0.0771
     42 N         143.1218  139.7573  158.4371 N.3     1  UNL1       -0.2685
     43 C         142.9064  139.5829  156.9628 C.3     1  UNL1        0.0899
     44 O         144.7856  144.1131  163.0205 O.3     1  UNL1       -0.4684
     45 C         143.7522  145.1714  163.2703 C.3     1  UNL1        0.2526
     46 O         144.3944  141.7906  164.8787 O.3     1  UNL1       -0.4684
     47 C         143.4584  142.6488  165.6771 C.3     1  UNL1        0.2526
@<TRIPOS>BOND
     1    28    29    1
     2    29    17    1
     3    17    18   ar
     4    18    19   ar
     5    19    20   ar
     6    20    21   ar
     7    21    22   ar
     8    22    30    1
     9    30    31    1
    10    20    23    1
    11    23    16    1
    12    16    10    1
    13    10    11   ar
    14    11    12   ar
    15    12    13   ar
    16    13     9    1
    17     9     1    1
    18     1     2   ar
    19     2     3   ar
    20     3    32    1
    21    33    32    1
    22    33    34    1
    23    34    35   ar
    24    35    36   ar
    25    36    44    1
    26    44    45    1
    27    36    37   ar
    28    37    46    1
    29    46    47    1
    30    37    38   ar
    31    38    39   ar
    32    39    40    1
    33    40    41    1
    34    41    42    1
    35    42    43    1
    36     3     4   ar
    37     4     5   ar
    38     5     6   ar
    39     6     7    1
    40    13    14   ar
    41    14    15   ar
    42    23    24    1
    43    24    25    1
    44    24    26    1
    45    26    27    1
    46    22    17   ar
    47    15    10   ar
    48    27    19    1
    49     6     1   ar
    50    42    33    1
    51    39    34   ar
    52     7     8    1
@<TRIPOS>MOLECULE
*****
 47 52 0 0 0
SMALL
GASTEIGER

@<TRIPOS>ATOM
      1 C         140.0652  144.5939  158.9978 C.ar    1  UNL1        0.1784
      2 C         139.4479  143.2360  159.1553 C.ar    1  UNL1        0.0364
      3 C         139.1893  142.3849  157.9474 C.ar    1  UNL1       -0.0173
      4 C         139.5479  142.8920  156.5820 C.ar    1  UNL1       -0.0009
      5 C         140.1651  144.2501  156.4246 C.ar    1  UNL1        0.0395
      6 C         140.4238  145.1010  157.6324 C.ar    1  UNL1        0.1683
      7 O         141.0411  146.4590  157.4749 O.3     1  UNL1       -0.5028
      8 H         141.2651  146.7758  156.6220 H       1  UNL1        0.2923
      9 O         140.3239  145.4449  160.2057 O.3     1  UNL1       -0.4505
     10 C         142.9716  143.9181  163.5085 C.ar    1  UNL1       -0.0203
     11 C         143.2571  143.5430  162.0844 C.ar    1  UNL1       -0.0011
     12 C         142.3745  144.0520  160.9835 C.ar    1  UNL1        0.0372
     13 C         141.2065  144.9360  161.3066 C.ar    1  UNL1        0.1454
     14 C         140.9211  145.3110  162.7307 C.ar    1  UNL1        0.0372
     15 C         141.8037  144.8020  163.8316 C.ar    1  UNL1       -0.0011
     16 C         143.8542  143.4091  164.6094 C.3     1  UNL1        0.0468
     17 C         141.0323  140.3595  168.0715 C.ar    1  UNL1        0.1721
     18 C         141.9799  139.4290  167.3743 C.ar    1  UNL1        0.0356
     19 C         142.9222  139.9587  166.3345 C.ar    1  UNL1       -0.0203
     20 C         142.9170  141.4190  165.9919 C.ar    1  UNL1       -0.0081
     21 C         141.9695  142.3496  166.6891 C.ar    1  UNL1        0.0368
     22 C         141.0271  141.8198  167.7289 C.ar    1  UNL1        0.1721
     23 C         143.8594  141.9488  164.9520 C.3     1  UNL1        0.0843
     24 N         144.8070  141.0183  164.2548 N.3     1  UNL1       -0.2685
     25 C         145.7493  141.5481  163.2149 C.3     1  UNL1        0.0899
     26 C         144.8122  139.5579  164.5974 C.3     1  UNL1        0.0771
     27 C         143.8699  139.0281  165.6372 C.3     1  UNL1        0.0435
     28 C         140.4586  139.9008  170.5636 C.3     1  UNL1        0.2526
     29 O         140.0899  139.8297  169.1114 O.3     1  UNL1       -0.4684
     30 O         140.0795  142.7504  168.4262 O.3     1  UNL1       -0.4684
     31 C         140.5474  143.5538  169.6033 C.3     1  UNL1        0.2526
     32 C         138.5720  141.0270  158.1050 C.3     1  UNL1        0.0469
     33 C         138.6923  140.0161  157.0033 C.3     1  UNL1        0.0843
     34 C         139.8893  139.1144  156.9402 C.ar    1  UNL1       -0.0081
     35 C         140.9661  139.2235  157.9788 C.ar    1  UNL1        0.0368
     36 C         142.1631  138.3218  157.9157 C.ar    1  UNL1        0.1721
     37 C         142.2834  137.3109  156.8141 C.ar    1  UNL1        0.1721
     38 C         141.2066  137.2017  155.7755 C.ar    1  UNL1        0.0356
     39 C         140.0095  138.1035  155.8386 C.ar    1  UNL1       -0.0203
     40 C         138.9328  137.9943  154.8000 C.3     1  UNL1        0.0435
     41 C         137.7358  138.8960  154.8631 C.3     1  UNL1        0.0771
     42 N         137.6155  139.9069  155.9648 N.3     1  UNL1       -0.2685
     43 C         136.4184  140.8086  156.0278 C.3     1  UNL1        0.0899
     44 O         143.2399  138.4310  158.9543 O.3     1  UNL1       -0.4684
     45 C         143.0647  137.7688  160.2888 C.3     1  UNL1        0.2526
     46 O         143.4804  136.4092  156.7510 O.3     1  UNL1       -0.4684
     47 C         143.3362  134.9486  157.0604 C.3     1  UNL1        0.2526
@<TRIPOS>BOND
     1    28    29    1
     2    29    17    1
     3    17    18   ar
     4    18    19   ar
     5    19    20   ar
     6    20    21   ar
     7    21    22   ar
     8    22    30    1
     9    30    31    1
    10    20    23    1
    11    23    16    1
    12    16    10    1
    13    10    11   ar
    14    11    12   ar
    15    12    13   ar
    16    13     9    1
    17     9     1    1
    18     1     2   ar
    19     2     3   ar
    20     3    32    1
    21    33    32    1
    22    33    34    1
    23    34    35   ar
    24    35    36   ar
    25    36    44    1
    26    44    45    1
    27    36    37   ar
    28    37    46    1
    29    46    47    1
    30    37    38   ar
    31    38    39   ar
    32    39    40    1
    33    40    41    1
    34    41    42    1
    35    42    43    1
    36     3     4   ar
    37     4     5   ar
    38     5     6   ar
    39     6     7    1
    40    13    14   ar
    41    14    15   ar
    42    23    24    1
    43    24    25    1
    44    24    26    1
    45    26    27    1
    46    22    17   ar
    47    15    10   ar
    48    27    19    1
    49     6     1   ar
    50    42    33    1
    51    39    34   ar
    52     7     8    1
@<TRIPOS>MOLECULE
*****
 47 52 0 0 0
SMALL
GASTEIGER

@<TRIPOS>ATOM
      1 C         142.2828  143.3559  162.9199 C.ar    1  UNL1        0.1784
      2 C         141.8279  142.0159  163.4171 C.ar    1  UNL1        0.0364
      3 C         142.8357  141.0072  163.8831 C.ar    1  UNL1       -0.0173
      4 C         144.2983  141.3387  163.8517 C.ar    1  UNL1       -0.0009
      5 C         144.7531  142.6789  163.3545 C.ar    1  UNL1        0.0395
      6 C         143.7453  143.6874  162.8886 C.ar    1  UNL1        0.1683
      7 O         144.2001  145.0276  162.3913 O.3     1  UNL1       -0.5028
      8 H         145.1137  145.2347  162.3717 H       1  UNL1        0.2923
      9 O         141.2750  144.3646  162.4539 O.3     1  UNL1       -0.4505
     10 C         139.7418  144.2254  158.2255 C.ar    1  UNL1       -0.0203
     11 C         140.8198  145.1986  158.6007 C.ar    1  UNL1       -0.0011
     12 C         141.3309  145.2450  160.0102 C.ar    1  UNL1        0.0372
     13 C         140.7639  144.3182  161.0444 C.ar    1  UNL1        0.1454
     14 C         139.6859  143.3451  160.6692 C.ar    1  UNL1        0.0372
     15 C         139.1748  143.2986  159.2597 C.ar    1  UNL1       -0.0011
     16 C         139.2307  144.1790  156.8160 C.3     1  UNL1        0.0468
     17 C         139.7940  148.8875  154.2155 C.ar    1  UNL1        0.1721
     18 C         140.7664  147.9406  153.5769 C.ar    1  UNL1        0.0356
     19 C         140.8687  146.5268  154.0674 C.ar    1  UNL1       -0.0203
     20 C         139.9985  146.0598  155.1965 C.ar    1  UNL1       -0.0081
     21 C         139.0261  147.0067  155.8350 C.ar    1  UNL1        0.0368
     22 C         138.9239  148.4206  155.3445 C.ar    1  UNL1        0.1721
     23 C         140.1008  144.6460  155.6869 C.3     1  UNL1        0.0843
     24 N         141.0732  143.6991  155.0484 N.3     1  UNL1       -0.2685
     25 C         141.1755  142.2852  155.5389 C.3     1  UNL1        0.0899
     26 C         141.9434  144.1660  153.9193 C.3     1  UNL1        0.0771
     27 C         141.8411  145.5799  153.4288 C.3     1  UNL1        0.0435
     28 C         140.4835  151.3861  154.3931 C.3     1  UNL1        0.2526
     29 O         139.6917  150.3014  153.7250 O.3     1  UNL1       -0.4684
     30 O         137.9514  149.3675  155.9832 O.3     1  UNL1       -0.4684
     31 C         138.2022  149.8768  157.3715 C.3     1  UNL1        0.2526
     32 C         142.3809  139.6671  164.3803 C.3     1  UNL1        0.0469
     33 C         141.0676  139.5380  165.0935 C.3     1  UNL1        0.0843
     34 C         140.9851  139.8047  166.5672 C.ar    1  UNL1       -0.0081
     35 C         142.2158  140.2006  167.3279 C.ar    1  UNL1        0.0368
     36 C         142.1333  140.4674  168.8016 C.ar    1  UNL1        0.1721
     37 C         140.8200  140.3382  169.5148 C.ar    1  UNL1        0.1721
     38 C         139.5893  139.9423  168.7542 C.ar    1  UNL1        0.0356
     39 C         139.6718  139.6755  167.2804 C.ar    1  UNL1       -0.0203
     40 C         138.4411  139.2796  166.5198 C.3     1  UNL1        0.0435
     41 C         138.5236  139.0129  165.0461 C.3     1  UNL1        0.0771
     42 N         139.8369  139.1421  164.3329 N.3     1  UNL1       -0.2685
     43 C         139.9194  138.8753  162.8590 C.3     1  UNL1        0.0899
     44 O         143.3640  140.8633  169.5622 O.3     1  UNL1       -0.4684
     45 C         143.6764  142.3141  169.7808 C.3     1  UNL1        0.2526
     46 O         140.7374  140.6049  170.9886 O.3     1  UNL1       -0.4684
     47 C         140.5414  142.0059  171.4874 C.3     1  UNL1        0.2526
@<TRIPOS>BOND
     1    28    29    1
     2    29    17    1
     3    17    18   ar
     4    18    19   ar
     5    19    20   ar
     6    20    21   ar
     7    21    22   ar
     8    22    30    1
     9    30    31    1
    10    20    23    1
    11    23    16    1
    12    16    10    1
    13    10    11   ar
    14    11    12   ar
    15    12    13   ar
    16    13     9    1
    17     9     1    1
    18     1     2   ar
    19     2     3   ar
    20     3    32    1
    21    33    32    1
    22    33    34    1
    23    34    35   ar
    24    35    36   ar
    25    36    44    1
    26    44    45    1
    27    36    37   ar
    28    37    46    1
    29    46    47    1
    30    37    38   ar
    31    38    39   ar
    32    39    40    1
    33    40    41    1
    34    41    42    1
    35    42    43    1
    36     3     4   ar
    37     4     5   ar
    38     5     6   ar
    39     6     7    1
    40    13    14   ar
    41    14    15   ar
    42    23    24    1
    43    24    25    1
    44    24    26    1
    45    26    27    1
    46    22    17   ar
    47    15    10   ar
    48    27    19    1
    49     6     1   ar
    50    42    33    1
    51    39    34   ar
    52     7     8    1
