@<TRIPOS>MOLECULE
*****
 34 37 0 0 0
SMALL
GASTEIGER

@<TRIPOS>ATOM
      1 C         143.5030  138.5637  162.2364 C.3     1  UNL1        0.2535
      2 N         142.8913  138.9628  163.5465 N.pl3   1  UNL1       -0.1867
      3 C         141.4563  138.5717  163.7408 C.3     1  UNL1        0.2292
      4 C         140.5709  138.8214  164.9257 C.ar    1  UNL1        0.0247
      5 C         139.1962  138.2615  164.7103 C.ar    1  UNL1       -0.0005
      6 C         138.1525  138.4042  165.7781 C.ar    1  UNL1       -0.0002
      7 C         138.4836  139.1068  167.0613 C.ar    1  UNL1       -0.0002
      8 C         139.8583  139.6667  167.2768 C.ar    1  UNL1        0.0000
      9 C         140.9020  139.5240  166.2089 C.ar    1  UNL1        0.0304
     10 C         142.2002  140.1504  166.6242 C.3     1  UNL1        0.2610
     11 N         143.4879  140.2289  165.8589 N.2     1  UNL1       -0.0649
     12 C         143.7954  139.7004  164.4892 C.2     1  UNL1        0.2958
     13 C         142.2123  140.7818  167.9848 C.ar    1  UNL1        0.0580
     14 C         141.9068  142.2426  168.1366 C.ar    1  UNL1        0.0048
     15 C         141.9189  142.8738  169.4972 C.ar    1  UNL1        0.0296
     16 C         142.2364  142.0446  170.7060 C.ar    1  UNL1        0.1424
     17 F         142.2485  142.6759  172.0666 F       1  UNL1       -0.2041
     18 C         142.5418  140.5838  170.5543 C.ar    1  UNL1        0.0591
     19 C         142.5298  139.9524  169.1937 C.ar    1  UNL1        0.1427
     20 F         142.8352  138.4918  169.0420 F       1  UNL1       -0.2043
     21 C         145.1917  139.9412  163.9970 C.3     1  UNL1        0.1214
     22 C         145.6394  141.3332  163.6625 C.3     1  UNL1        0.0390
     23 C         144.6282  142.4313  163.5157 C.ar    1  UNL1       -0.0215
     24 C         144.4553  143.4429  164.6098 C.ar    1  UNL1       -0.0029
     25 C         143.4441  144.5410  164.4630 C.ar    1  UNL1        0.0155
     26 C         142.6058  144.6276  163.2221 C.ar    1  UNL1        0.0644
     27 C         142.7786  143.6161  162.1281 C.ar    1  UNL1        0.0155
     28 C         143.7898  142.5180  162.2749 C.ar    1  UNL1       -0.0029
     29 N         141.5946  145.7257  163.0753 N.pl3   1  UNL1       -0.2187
     30 H         141.8778  146.6668  163.1338 H       1  UNL1        0.1734
     31 S         140.1517  145.3900  162.8395 S.O2    1  UNL1        0.0558
     32 C         138.7089  145.0543  162.6037 C.3     1  UNL1        0.1996
     33 O         140.2418  145.9717  161.4598 O.2     1  UNL1       -0.1544
     34 O         140.0616  144.8084  164.2191 O.2     1  UNL1       -0.1544
@<TRIPOS>BOND
     1     1     2    1
     2     2     3    1
     3     3     4    1
     4     4     5   ar
     5     5     6   ar
     6     6     7   ar
     7     7     8   ar
     8     8     9   ar
     9     9    10    1
    10    10    13    1
    11    13    14   ar
    12    14    15   ar
    13    15    16   ar
    14    16    17    1
    15    16    18   ar
    16    18    19   ar
    17    19    20    1
    18    10    11    1
    19    11    12    2
    20    12    21    1
    21    21    22    1
    22    22    23    1
    23    23    24   ar
    24    24    25   ar
    25    25    26   ar
    26    26    29    1
    27    29    31    1
    28    31    32    1
    29    31    33    2
    30    31    34    2
    31    26    27   ar
    32    27    28   ar
    33    12     2    1
    34    28    23   ar
    35     9     4   ar
    36    19    13   ar
    37    29    30    1
@<TRIPOS>MOLECULE
*****
 34 37 0 0 0
SMALL
GASTEIGER

@<TRIPOS>ATOM
      1 C         143.8163  139.0548  161.8347 C.3     1  UNL1        0.2535
      2 N         143.1427  139.3186  163.1487 N.pl3   1  UNL1       -0.1867
      3 C         141.7507  138.7771  163.2869 C.3     1  UNL1        0.2292
      4 C         140.8223  138.8722  164.4612 C.ar    1  UNL1        0.0247
      5 C         139.5150  138.1916  164.1829 C.ar    1  UNL1       -0.0005
      6 C         138.4420  138.1712  165.2309 C.ar    1  UNL1       -0.0002
      7 C         138.6765  138.8314  166.5572 C.ar    1  UNL1       -0.0002
      8 C         139.9838  139.5120  166.8356 C.ar    1  UNL1        0.0000
      9 C         141.0567  139.5324  165.7876 C.ar    1  UNL1        0.0304
     10 C         142.2774  140.2605  166.2671 C.3     1  UNL1        0.2610
     11 N         143.5651  140.5082  165.5388 N.2     1  UNL1       -0.0649
     12 C         143.9502  140.0890  164.1510 C.2     1  UNL1        0.2958
     13 C         142.2001  140.8141  167.6591 C.ar    1  UNL1        0.0580
     14 C         142.6945  140.0005  168.8184 C.ar    1  UNL1        0.0048
     15 C         142.6171  140.5541  170.2103 C.ar    1  UNL1        0.0296
     16 C         142.0456  141.9212  170.4431 C.ar    1  UNL1        0.1424
     17 F         141.9683  142.4748  171.8350 F       1  UNL1       -0.2041
     18 C         141.5512  142.7348  169.2839 C.ar    1  UNL1        0.0591
     19 C         141.6285  142.1812  167.8919 C.ar    1  UNL1        0.1427
     20 F         141.1342  142.9948  166.7327 F       1  UNL1       -0.2043
     21 C         145.3245  140.4938  163.7066 C.3     1  UNL1        0.1214
     22 C         145.5918  141.9103  163.2919 C.3     1  UNL1        0.0390
     23 C         144.4558  142.8815  163.1643 C.ar    1  UNL1       -0.0215
     24 C         143.6010  142.8781  161.9316 C.ar    1  UNL1       -0.0029
     25 C         142.4650  143.8493  161.8040 C.ar    1  UNL1        0.0155
     26 C         142.1839  144.8240  162.9091 C.ar    1  UNL1        0.0644
     27 C         143.0387  144.8274  164.1416 C.ar    1  UNL1        0.0155
     28 C         144.1746  143.8562  164.2692 C.ar    1  UNL1       -0.0029
     29 N         141.0479  145.7952  162.7814 N.pl3   1  UNL1       -0.2187
     30 H         141.2304  146.7605  162.7176 H       1  UNL1        0.1734
     31 S         139.6338  145.2956  162.7510 S.O2    1  UNL1        0.0558
     32 C         138.2198  144.7960  162.7206 C.3     1  UNL1        0.1996
     33 O         139.7610  144.8488  164.1772 O.2     1  UNL1       -0.1544
     34 O         139.5067  145.7424  161.3248 O.2     1  UNL1       -0.1544
@<TRIPOS>BOND
     1     1     2    1
     2     2     3    1
     3     3     4    1
     4     4     5   ar
     5     5     6   ar
     6     6     7   ar
     7     7     8   ar
     8     8     9   ar
     9     9    10    1
    10    10    13    1
    11    13    14   ar
    12    14    15   ar
    13    15    16   ar
    14    16    17    1
    15    16    18   ar
    16    18    19   ar
    17    19    20    1
    18    10    11    1
    19    11    12    2
    20    12    21    1
    21    21    22    1
    22    22    23    1
    23    23    24   ar
    24    24    25   ar
    25    25    26   ar
    26    26    29    1
    27    29    31    1
    28    31    32    1
    29    31    33    2
    30    31    34    2
    31    26    27   ar
    32    27    28   ar
    33    12     2    1
    34    28    23   ar
    35     9     4   ar
    36    19    13   ar
    37    29    30    1
@<TRIPOS>MOLECULE
*****
 34 37 0 0 0
SMALL
GASTEIGER

@<TRIPOS>ATOM
      1 C         143.6052  138.5042  162.2987 C.3     1  UNL1        0.2535
      2 N         142.9645  138.9098  163.5928 N.pl3   1  UNL1       -0.1867
      3 C         141.5268  138.5157  163.7590 C.3     1  UNL1        0.2292
      4 C         140.6156  138.7702  164.9230 C.ar    1  UNL1        0.0247
      5 C         139.2473  138.2050  164.6819 C.ar    1  UNL1       -0.0005
      6 C         138.1807  138.3513  165.7262 C.ar    1  UNL1       -0.0002
      7 C         138.4823  139.0630  167.0118 C.ar    1  UNL1       -0.0002
      8 C         139.8506  139.6282  167.2529 C.ar    1  UNL1        0.0000
      9 C         140.9172  139.4819  166.2086 C.ar    1  UNL1        0.0304
     10 C         142.2045  140.1146  166.6475 C.3     1  UNL1        0.2610
     11 N         143.5080  140.1921  165.9094 N.2     1  UNL1       -0.0649
     12 C         143.8462  139.6559  164.5499 C.2     1  UNL1        0.2958
     13 C         142.1857  140.7546  168.0040 C.ar    1  UNL1        0.0580
     14 C         141.8592  142.2122  168.1412 C.ar    1  UNL1        0.0048
     15 C         141.8404  142.8521  169.4978 C.ar    1  UNL1        0.0296
     16 C         142.1481  142.0345  170.7170 C.ar    1  UNL1        0.1424
     17 F         142.1294  142.6744  172.0736 F       1  UNL1       -0.2041
     18 C         142.4747  140.5769  170.5799 C.ar    1  UNL1        0.0591
     19 C         142.4935  139.9369  169.2234 C.ar    1  UNL1        0.1427
     20 F         142.8200  138.4794  169.0862 F       1  UNL1       -0.2043
     21 C         145.2521  139.8977  164.0862 C.3     1  UNL1        0.1214
     22 C         145.7147  141.2936  163.7907 C.3     1  UNL1        0.0390
     23 C         144.7678  142.2842  163.1807 C.ar    1  UNL1       -0.0215
     24 C         144.4281  142.1972  161.7222 C.ar    1  UNL1       -0.0029
     25 C         143.4812  143.1878  161.1123 C.ar    1  UNL1        0.0155
     26 C         142.8739  144.2655  161.9609 C.ar    1  UNL1        0.0644
     27 C         143.2136  144.3525  163.4193 C.ar    1  UNL1        0.0155
     28 C         144.1605  143.3618  164.0292 C.ar    1  UNL1       -0.0029
     29 N         141.9270  145.2561  161.3509 N.pl3   1  UNL1       -0.2187
     30 H         141.9107  146.1855  161.6752 H       1  UNL1        0.1734
     31 S         141.0050  144.8306  160.2469 S.O2    1  UNL1        0.0558
     32 C         140.0830  144.4051  159.1429 C.3     1  UNL1        0.1996
     33 O         140.1415  144.1157  161.2435 O.2     1  UNL1       -0.1544
     34 O         141.8684  145.5455  159.2503 O.2     1  UNL1       -0.1544
@<TRIPOS>BOND
     1     1     2    1
     2     2     3    1
     3     3     4    1
     4     4     5   ar
     5     5     6   ar
     6     6     7   ar
     7     7     8   ar
     8     8     9   ar
     9     9    10    1
    10    10    13    1
    11    13    14   ar
    12    14    15   ar
    13    15    16   ar
    14    16    17    1
    15    16    18   ar
    16    18    19   ar
    17    19    20    1
    18    10    11    1
    19    11    12    2
    20    12    21    1
    21    21    22    1
    22    22    23    1
    23    23    24   ar
    24    24    25   ar
    25    25    26   ar
    26    26    29    1
    27    29    31    1
    28    31    32    1
    29    31    33    2
    30    31    34    2
    31    26    27   ar
    32    27    28   ar
    33    12     2    1
    34    28    23   ar
    35     9     4   ar
    36    19    13   ar
    37    29    30    1
@<TRIPOS>MOLECULE
*****
 34 37 0 0 0
SMALL
GASTEIGER

@<TRIPOS>ATOM
      1 C         138.0976  138.3383  162.5955 C.3     1  UNL1        0.2535
      2 N         138.5539  139.3650  163.5892 N.pl3   1  UNL1       -0.1867
      3 C         138.1289  140.7760  163.3089 C.3     1  UNL1        0.2292
      4 C         138.4199  142.0155  164.1020 C.ar    1  UNL1        0.0247
      5 C         137.8041  143.2281  163.4692 C.ar    1  UNL1       -0.0005
      6 C         137.9762  144.5754  164.1058 C.ar    1  UNL1       -0.0002
      7 C         138.7642  144.7101  165.3750 C.ar    1  UNL1       -0.0002
      8 C         139.3800  143.4975  166.0077 C.ar    1  UNL1        0.0000
      9 C         139.2079  142.1502  165.3712 C.ar    1  UNL1        0.0304
     10 C         139.8994  141.0786  166.1608 C.3     1  UNL1        0.2610
     11 N         139.9738  139.6078  165.8764 N.2     1  UNL1       -0.0649
     12 C         139.3750  138.8452  164.7318 C.2     1  UNL1        0.2958
     13 C         140.6106  141.5389  167.3988 C.ar    1  UNL1        0.0580
     14 C         139.9136  141.4903  168.7262 C.ar    1  UNL1        0.0048
     15 C         140.6249  141.9505  169.9640 C.ar    1  UNL1        0.0296
     16 C         142.0330  142.4593  169.8746 C.ar    1  UNL1        0.1424
     17 F         142.7443  142.9195  171.1124 F       1  UNL1       -0.2041
     18 C         142.7301  142.5079  168.5472 C.ar    1  UNL1        0.0591
     19 C         142.0189  142.0477  167.3093 C.ar    1  UNL1        0.1427
     20 F         142.7159  142.0963  165.9821 F       1  UNL1       -0.2043
     21 C         139.6312  137.3672  164.7296 C.3     1  UNL1        0.1214
     22 C         141.0176  136.8467  164.4915 C.3     1  UNL1        0.0390
     23 C         142.1284  137.7974  164.1564 C.ar    1  UNL1       -0.0215
     24 C         142.3597  138.2085  162.7324 C.ar    1  UNL1       -0.0029
     25 C         143.4705  139.1592  162.3972 C.ar    1  UNL1        0.0155
     26 C         144.3500  139.6987  163.4860 C.ar    1  UNL1        0.0644
     27 C         144.1187  139.2876  164.9099 C.ar    1  UNL1        0.0155
     28 C         143.0079  138.3369  165.2451 C.ar    1  UNL1       -0.0029
     29 N         145.4608  140.6494  163.1509 N.pl3   1  UNL1       -0.2187
     30 H         146.3952  140.3397  163.1662 H       1  UNL1        0.1734
     31 S         145.1479  142.0720  162.7924 S.O2    1  UNL1        0.0558
     32 C         144.8350  143.4945  162.4340 C.3     1  UNL1        0.1996
     33 O         145.1087  141.6976  161.3404 O.2     1  UNL1       -0.1544
     34 O         145.1871  142.4464  164.2443 O.2     1  UNL1       -0.1544
@<TRIPOS>BOND
     1     1     2    1
     2     2     3    1
     3     3     4    1
     4     4     5   ar
     5     5     6   ar
     6     6     7   ar
     7     7     8   ar
     8     8     9   ar
     9     9    10    1
    10    10    13    1
    11    13    14   ar
    12    14    15   ar
    13    15    16   ar
    14    16    17    1
    15    16    18   ar
    16    18    19   ar
    17    19    20    1
    18    10    11    1
    19    11    12    2
    20    12    21    1
    21    21    22    1
    22    22    23    1
    23    23    24   ar
    24    24    25   ar
    25    25    26   ar
    26    26    29    1
    27    29    31    1
    28    31    32    1
    29    31    33    2
    30    31    34    2
    31    26    27   ar
    32    27    28   ar
    33    12     2    1
    34    28    23   ar
    35     9     4   ar
    36    19    13   ar
    37    29    30    1
@<TRIPOS>MOLECULE
*****
 34 37 0 0 0
SMALL
GASTEIGER

@<TRIPOS>ATOM
      1 C         140.2742  145.6885  162.4249 C.3     1  UNL1        0.2535
      2 N         141.0287  144.6933  163.2557 N.pl3   1  UNL1       -0.1867
      3 C         142.3394  144.2335  162.6896 C.3     1  UNL1        0.2292
      4 C         143.3179  143.2562  163.2706 C.ar    1  UNL1        0.0247
      5 C         144.5096  143.0772  162.3775 C.ar    1  UNL1       -0.0005
      6 C         145.6107  142.1394  162.7751 C.ar    1  UNL1       -0.0002
      7 C         145.5200  141.3806  164.0658 C.ar    1  UNL1       -0.0002
      8 C         144.3283  141.5596  164.9590 C.ar    1  UNL1        0.0000
      9 C         143.2273  142.4974  164.5614 C.ar    1  UNL1        0.0304
     10 C         142.1357  142.5285  165.5898 C.3     1  UNL1        0.2610
     11 N         140.8653  143.3259  165.5816 N.2     1  UNL1       -0.0649
     12 C         140.3726  144.2894  164.5427 C.2     1  UNL1        0.2958
     13 C         142.3419  141.6452  166.7845 C.ar    1  UNL1        0.0580
     14 C         142.9045  142.2171  168.0520 C.ar    1  UNL1        0.0048
     15 C         143.1106  141.3338  169.2467 C.ar    1  UNL1        0.0296
     16 C         142.7543  139.8786  169.1739 C.ar    1  UNL1        0.1424
     17 F         142.9605  138.9953  170.3686 F       1  UNL1       -0.2041
     18 C         142.1918  139.3066  167.9065 C.ar    1  UNL1        0.0591
     19 C         141.9856  140.1899  166.7117 C.ar    1  UNL1        0.1427
     20 F         141.4231  139.6179  165.4444 F       1  UNL1       -0.2043
     21 C         139.0489  144.9342  164.8288 C.3     1  UNL1        0.1214
     22 C         137.7771  144.1798  164.5769 C.3     1  UNL1        0.0390
     23 C         137.8010  142.9202  163.7627 C.ar    1  UNL1       -0.0215
     24 C         137.8246  141.5854  164.4468 C.ar    1  UNL1       -0.0029
     25 C         137.8484  140.3258  163.6327 C.ar    1  UNL1        0.0155
     26 C         137.8487  140.4010  162.1345 C.ar    1  UNL1        0.0644
     27 C         137.8251  141.7357  161.4505 C.ar    1  UNL1        0.0155
     28 C         137.8013  142.9953  162.2647 C.ar    1  UNL1       -0.0029
     29 N         137.8726  139.1413  161.3204 N.pl3   1  UNL1       -0.2187
     30 H         137.1189  138.5098  161.3685 H       1  UNL1        0.1734
     31 S         139.0448  138.8440  160.4329 S.O2    1  UNL1        0.0558
     32 C         140.2170  138.5467  159.5455 C.3     1  UNL1        0.1996
     33 O         138.3259  139.4685  159.2740 O.2     1  UNL1       -0.1544
     34 O         139.7637  138.2195  161.5918 O.2     1  UNL1       -0.1544
@<TRIPOS>BOND
     1     1     2    1
     2     2     3    1
     3     3     4    1
     4     4     5   ar
     5     5     6   ar
     6     6     7   ar
     7     7     8   ar
     8     8     9   ar
     9     9    10    1
    10    10    13    1
    11    13    14   ar
    12    14    15   ar
    13    15    16   ar
    14    16    17    1
    15    16    18   ar
    16    18    19   ar
    17    19    20    1
    18    10    11    1
    19    11    12    2
    20    12    21    1
    21    21    22    1
    22    22    23    1
    23    23    24   ar
    24    24    25   ar
    25    25    26   ar
    26    26    29    1
    27    29    31    1
    28    31    32    1
    29    31    33    2
    30    31    34    2
    31    26    27   ar
    32    27    28   ar
    33    12     2    1
    34    28    23   ar
    35     9     4   ar
    36    19    13   ar
    37    29    30    1
@<TRIPOS>MOLECULE
*****
 34 37 0 0 0
SMALL
GASTEIGER

@<TRIPOS>ATOM
      1 C         144.3707  144.3651  162.4727 C.3     1  UNL1        0.2535
      2 N         143.2418  143.9513  163.3695 N.pl3   1  UNL1       -0.1867
      3 C         141.8740  144.3918  162.9396 C.3     1  UNL1        0.2292
      4 C         140.5565  144.1415  163.6117 C.ar    1  UNL1        0.0247
      5 C         139.4246  144.7605  162.8464 C.ar    1  UNL1       -0.0005
      6 C         138.0177  144.6267  163.3491 C.ar    1  UNL1       -0.0002
      7 C         137.7427  143.8740  164.6171 C.ar    1  UNL1       -0.0002
      8 C         138.8746  143.2551  165.3824 C.ar    1  UNL1        0.0000
      9 C         140.2815  143.3889  164.8797 C.ar    1  UNL1        0.0304
     10 C         141.2561  142.7006  165.7888 C.3     1  UNL1        0.2610
     11 N         142.7463  142.5950  165.6545 N.2     1  UNL1       -0.0649
     12 C         143.6300  143.1516  164.5778 C.2     1  UNL1        0.2958
     13 C         140.6618  142.0291  166.9913 C.ar    1  UNL1        0.0580
     14 C         140.6260  142.7450  168.3090 C.ar    1  UNL1        0.0048
     15 C         140.0317  142.0735  169.5114 C.ar    1  UNL1        0.0296
     16 C         139.4733  140.6862  169.3963 C.ar    1  UNL1        0.1424
     17 F         138.8790  140.0146  170.5987 F       1  UNL1       -0.2041
     18 C         139.5090  139.9703  168.0786 C.ar    1  UNL1        0.0591
     19 C         140.1033  140.6417  166.8761 C.ar    1  UNL1        0.1427
     20 F         140.1390  139.9259  165.5585 F       1  UNL1       -0.2043
     21 C         145.0958  142.8715  164.7294 C.3     1  UNL1        0.1214
     22 C         145.6800  141.6089  164.1687 C.3     1  UNL1        0.0390
     23 C         144.7874  140.5933  163.5192 C.ar    1  UNL1       -0.0215
     24 C         144.0861  139.5659  164.3575 C.ar    1  UNL1       -0.0029
     25 C         143.1935  138.5503  163.7080 C.ar    1  UNL1        0.0155
     26 C         143.0022  138.5621  162.2202 C.ar    1  UNL1        0.0644
     27 C         143.7036  139.5894  161.3820 C.ar    1  UNL1        0.0155
     28 C         144.5962  140.6050  162.0315 C.ar    1  UNL1       -0.0029
     29 N         142.1096  137.5465  161.5708 N.pl3   1  UNL1       -0.2187
     30 H         142.4807  136.6857  161.2698 H       1  UNL1        0.1734
     31 S         140.6515  137.8424  161.3799 S.O2    1  UNL1        0.0558
     32 C         139.1934  138.1383  161.1890 C.3     1  UNL1        0.1996
     33 O         140.9541  138.4797  160.0562 O.2     1  UNL1       -0.1544
     34 O         140.3489  137.2051  162.7035 O.2     1  UNL1       -0.1544
@<TRIPOS>BOND
     1     1     2    1
     2     2     3    1
     3     3     4    1
     4     4     5   ar
     5     5     6   ar
     6     6     7   ar
     7     7     8   ar
     8     8     9   ar
     9     9    10    1
    10    10    13    1
    11    13    14   ar
    12    14    15   ar
    13    15    16   ar
    14    16    17    1
    15    16    18   ar
    16    18    19   ar
    17    19    20    1
    18    10    11    1
    19    11    12    2
    20    12    21    1
    21    21    22    1
    22    22    23    1
    23    23    24   ar
    24    24    25   ar
    25    25    26   ar
    26    26    29    1
    27    29    31    1
    28    31    32    1
    29    31    33    2
    30    31    34    2
    31    26    27   ar
    32    27    28   ar
    33    12     2    1
    34    28    23   ar
    35     9     4   ar
    36    19    13   ar
    37    29    30    1
@<TRIPOS>MOLECULE
*****
 34 37 0 0 0
SMALL
GASTEIGER

@<TRIPOS>ATOM
      1 C         144.0656  144.4013  162.5043 C.3     1  UNL1        0.2535
      2 N         143.5690  143.4237  163.5278 N.pl3   1  UNL1       -0.1867
      3 C         144.3244  142.1306  163.6130 C.3     1  UNL1        0.2292
      4 C         144.0801  140.9628  164.5222 C.ar    1  UNL1        0.0247
      5 C         145.0716  139.8635  164.2808 C.ar    1  UNL1       -0.0005
      6 C         145.0030  138.6011  165.0880 C.ar    1  UNL1       -0.0002
      7 C         143.9430  138.4381  166.1367 C.ar    1  UNL1       -0.0002
      8 C         142.9514  139.5374  166.3781 C.ar    1  UNL1        0.0000
      9 C         143.0200  140.7998  165.5709 C.ar    1  UNL1        0.0304
     10 C         141.9425  141.7642  165.9692 C.3     1  UNL1        0.2610
     11 N         141.6588  143.1299  165.4174 N.2     1  UNL1       -0.0649
     12 C         142.3827  143.8684  164.3309 C.2     1  UNL1        0.2958
     13 C         141.0275  141.3019  167.0643 C.ar    1  UNL1        0.0580
     14 C         139.9407  140.3119  166.7658 C.ar    1  UNL1        0.0048
     15 C         139.0259  139.8496  167.8609 C.ar    1  UNL1        0.0296
     16 C         139.1977  140.3771  169.2544 C.ar    1  UNL1        0.1424
     17 F         138.2828  139.9148  170.3495 F       1  UNL1       -0.2041
     18 C         140.2844  141.3670  169.5530 C.ar    1  UNL1        0.0591
     19 C         141.1993  141.8294  168.4580 C.ar    1  UNL1        0.1427
     20 F         142.2860  142.8192  168.7565 F       1  UNL1       -0.2043
     21 C         141.8498  145.2320  164.0042 C.3     1  UNL1        0.1214
     22 C         140.6463  145.3749  163.1204 C.3     1  UNL1        0.0390
     23 C         139.7756  144.1859  162.8408 C.ar    1  UNL1       -0.0215
     24 C         138.6085  143.8845  163.7335 C.ar    1  UNL1       -0.0029
     25 C         137.7378  142.6955  163.4539 C.ar    1  UNL1        0.0155
     26 C         138.0343  141.8080  162.2815 C.ar    1  UNL1        0.0644
     27 C         139.2014  142.1094  161.3888 C.ar    1  UNL1        0.0155
     28 C         140.0720  143.2984  161.6685 C.ar    1  UNL1       -0.0029
     29 N         137.1636  140.6190  162.0019 N.pl3   1  UNL1       -0.2187
     30 H         136.1837  140.7139  162.0087 H       1  UNL1        0.1734
     31 S         137.7859  139.2853  161.7119 S.O2    1  UNL1        0.0558
     32 C         138.4082  137.9516  161.4220 C.3     1  UNL1        0.1996
     33 O         137.3573  139.3968  160.2788 O.2     1  UNL1       -0.1544
     34 O         138.2145  139.1737  163.1450 O.2     1  UNL1       -0.1544
@<TRIPOS>BOND
     1     1     2    1
     2     2     3    1
     3     3     4    1
     4     4     5   ar
     5     5     6   ar
     6     6     7   ar
     7     7     8   ar
     8     8     9   ar
     9     9    10    1
    10    10    13    1
    11    13    14   ar
    12    14    15   ar
    13    15    16   ar
    14    16    17    1
    15    16    18   ar
    16    18    19   ar
    17    19    20    1
    18    10    11    1
    19    11    12    2
    20    12    21    1
    21    21    22    1
    22    22    23    1
    23    23    24   ar
    24    24    25   ar
    25    25    26   ar
    26    26    29    1
    27    29    31    1
    28    31    32    1
    29    31    33    2
    30    31    34    2
    31    26    27   ar
    32    27    28   ar
    33    12     2    1
    34    28    23   ar
    35     9     4   ar
    36    19    13   ar
    37    29    30    1
@<TRIPOS>MOLECULE
*****
 34 37 0 0 0
SMALL
GASTEIGER

@<TRIPOS>ATOM
      1 C         138.2066  138.3904  162.6930 C.3     1  UNL1        0.2535
      2 N         138.6976  139.4503  163.6340 N.pl3   1  UNL1       -0.1867
      3 C         138.2206  140.8439  163.3508 C.3     1  UNL1        0.2292
      4 C         138.5287  142.1079  164.0975 C.ar    1  UNL1        0.0247
      5 C         137.8446  143.2906  163.4787 C.ar    1  UNL1       -0.0005
      6 C         138.0218  144.6558  164.0742 C.ar    1  UNL1       -0.0002
      7 C         138.8831  144.8383  165.2886 C.ar    1  UNL1       -0.0002
      8 C         139.5673  143.6555  165.9074 C.ar    1  UNL1        0.0000
      9 C         139.3901  142.2903  165.3118 C.ar    1  UNL1        0.0304
     10 C         140.1560  141.2539  166.0795 C.3     1  UNL1        0.2610
     11 N         140.2498  139.7791  165.8224 N.2     1  UNL1       -0.0649
     12 C         139.6007  138.9764  164.7340 C.2     1  UNL1        0.2958
     13 C         140.9307  141.7591  167.2604 C.ar    1  UNL1        0.0580
     14 C         140.2132  142.1348  168.5231 C.ar    1  UNL1        0.0048
     15 C         140.9879  142.6401  169.7039 C.ar    1  UNL1        0.0296
     16 C         142.4799  142.7697  169.6224 C.ar    1  UNL1        0.1424
     17 F         143.2547  143.2749  170.8032 F       1  UNL1       -0.2041
     18 C         143.1975  142.3940  168.3598 C.ar    1  UNL1        0.0591
     19 C         142.4229  141.8887  167.1788 C.ar    1  UNL1        0.1427
     20 F         143.1404  141.5131  165.9163 F       1  UNL1       -0.2043
     21 C         139.8934  137.5053  164.7474 C.3     1  UNL1        0.1214
     22 C         141.2207  137.0003  164.2646 C.3     1  UNL1        0.0390
     23 C         141.9970  137.7845  163.2486 C.ar    1  UNL1       -0.0215
     24 C         143.1299  138.6648  163.6864 C.ar    1  UNL1       -0.0029
     25 C         143.9063  139.4490  162.6704 C.ar    1  UNL1        0.0155
     26 C         143.5497  139.3529  161.2165 C.ar    1  UNL1        0.0644
     27 C         142.4169  138.4726  160.7787 C.ar    1  UNL1        0.0155
     28 C         141.6406  137.6884  161.7947 C.ar    1  UNL1       -0.0029
     29 N         144.3261  140.1371  160.2005 N.pl3   1  UNL1       -0.2187
     30 H         145.3049  140.2098  160.2778 H       1  UNL1        0.1734
     31 S         143.6112  140.8106  159.0668 S.O2    1  UNL1        0.0558
     32 C         142.8962  141.4841  157.9331 C.3     1  UNL1        0.1996
     33 O         144.2137  139.8304  158.1045 O.2     1  UNL1       -0.1544
     34 O         143.0086  141.7908  160.0291 O.2     1  UNL1       -0.1544
@<TRIPOS>BOND
     1     1     2    1
     2     2     3    1
     3     3     4    1
     4     4     5   ar
     5     5     6   ar
     6     6     7   ar
     7     7     8   ar
     8     8     9   ar
     9     9    10    1
    10    10    13    1
    11    13    14   ar
    12    14    15   ar
    13    15    16   ar
    14    16    17    1
    15    16    18   ar
    16    18    19   ar
    17    19    20    1
    18    10    11    1
    19    11    12    2
    20    12    21    1
    21    21    22    1
    22    22    23    1
    23    23    24   ar
    24    24    25   ar
    25    25    26   ar
    26    26    29    1
    27    29    31    1
    28    31    32    1
    29    31    33    2
    30    31    34    2
    31    26    27   ar
    32    27    28   ar
    33    12     2    1
    34    28    23   ar
    35     9     4   ar
    36    19    13   ar
    37    29    30    1
@<TRIPOS>MOLECULE
*****
 34 37 0 0 0
SMALL
GASTEIGER

@<TRIPOS>ATOM
      1 C         143.0354  137.8079  162.1960 C.3     1  UNL1        0.2535
      2 N         142.9923  138.7483  163.3637 N.pl3   1  UNL1       -0.1867
      3 C         143.8017  140.0029  163.2192 C.3     1  UNL1        0.2292
      4 C         143.9642  141.1290  164.1968 C.ar    1  UNL1        0.0247
      5 C         144.8666  142.1982  163.6561 C.ar    1  UNL1       -0.0005
      6 C         145.1623  143.4169  164.4790 C.ar    1  UNL1       -0.0002
      7 C         144.5555  143.5664  165.8427 C.ar    1  UNL1       -0.0002
      8 C         143.6531  142.4972  166.3833 C.ar    1  UNL1        0.0000
      9 C         143.3574  141.2785  165.5604 C.ar    1  UNL1        0.0304
     10 C         142.4383  140.3389  166.2832 C.3     1  UNL1        0.2610
     11 N         141.8989  139.0178  165.8209 N.2     1  UNL1       -0.0649
     12 C         142.1455  138.3099  164.5216 C.2     1  UNL1        0.2958
     13 C         142.0007  140.7786  167.6489 C.ar    1  UNL1        0.0580
     14 C         142.7398  140.3005  168.8635 C.ar    1  UNL1        0.0048
     15 C         142.3021  140.7402  170.2291 C.ar    1  UNL1        0.0296
     16 C         141.1254  141.6580  170.3803 C.ar    1  UNL1        0.1424
     17 F         140.6877  142.0978  171.7459 F       1  UNL1       -0.2041
     18 C         140.3863  142.1362  169.1658 C.ar    1  UNL1        0.0591
     19 C         140.8239  141.6964  167.8000 C.ar    1  UNL1        0.1427
     20 F         140.0848  142.1745  166.5856 F       1  UNL1       -0.2043
     21 C         141.4538  136.9890  164.3586 C.3     1  UNL1        0.1214
     22 C         139.9800  136.9430  164.0830 C.3     1  UNL1        0.0390
     23 C         139.2147  138.2172  163.8812 C.ar    1  UNL1       -0.0215
     24 C         138.7298  138.9967  165.0676 C.ar    1  UNL1       -0.0029
     25 C         137.9644  140.2709  164.8658 C.ar    1  UNL1        0.0155
     26 C         137.6840  140.7655  163.4777 C.ar    1  UNL1        0.0644
     27 C         138.1689  139.9860  162.2915 C.ar    1  UNL1        0.0155
     28 C         138.9342  138.7119  162.4933 C.ar    1  UNL1       -0.0029
     29 N         136.9186  142.0397  163.2760 N.pl3   1  UNL1       -0.2187
     30 H         135.9345  142.0242  163.2515 H       1  UNL1        0.1734
     31 S         137.6526  143.3375  163.1115 S.O2    1  UNL1        0.0558
     32 C         138.3866  144.6352  162.9470 C.3     1  UNL1        0.1996
     33 O         137.6595  143.5223  164.6001 O.2     1  UNL1       -0.1544
     34 O         137.6457  143.1528  161.6230 O.2     1  UNL1       -0.1544
@<TRIPOS>BOND
     1     1     2    1
     2     2     3    1
     3     3     4    1
     4     4     5   ar
     5     5     6   ar
     6     6     7   ar
     7     7     8   ar
     8     8     9   ar
     9     9    10    1
    10    10    13    1
    11    13    14   ar
    12    14    15   ar
    13    15    16   ar
    14    16    17    1
    15    16    18   ar
    16    18    19   ar
    17    19    20    1
    18    10    11    1
    19    11    12    2
    20    12    21    1
    21    21    22    1
    22    22    23    1
    23    23    24   ar
    24    24    25   ar
    25    25    26   ar
    26    26    29    1
    27    29    31    1
    28    31    32    1
    29    31    33    2
    30    31    34    2
    31    26    27   ar
    32    27    28   ar
    33    12     2    1
    34    28    23   ar
    35     9     4   ar
    36    19    13   ar
    37    29    30    1
