@<TRIPOS>MOLECULE
*****
 21 23 0 0 0
SMALL
GASTEIGER

@<TRIPOS>ATOM
      1 N         141.7944  141.0983  165.8236 N.pl3   1  UNL1       -0.2860
      2 C         143.0483  141.2265  165.0103 C.ar    1  UNL1        0.0576
      3 C         143.9644  142.3948  165.2236 C.ar    1  UNL1        0.0153
      4 C         145.2183  142.5229  164.4104 C.ar    1  UNL1        0.0013
      5 C         145.5559  141.4827  163.3838 C.ar    1  UNL1        0.0006
      6 C         144.6397  140.3143  163.1704 C.ar    1  UNL1        0.0077
      7 C         143.3859  140.1862  163.9837 C.ar    1  UNL1        0.0431
      8 S         142.4696  139.0178  163.7704 S.3     1  UNL1       -0.0844
      9 C         141.2158  138.8897  164.5837 C.ar    1  UNL1        0.0431
     10 C         140.2996  137.7213  164.3704 C.ar    1  UNL1        0.0086
     11 C         139.0458  137.5932  165.1837 C.ar    1  UNL1        0.0120
     12 C         138.7081  138.6335  166.2103 C.ar    1  UNL1        0.0589
     13 CL        137.4543  138.5054  167.0236 Cl      1  UNL1       -0.0822
     14 C         139.6243  139.8018  166.4236 C.ar    1  UNL1        0.0267
     15 C         140.8782  139.9300  165.6103 C.ar    1  UNL1        0.0585
     16 C         141.4567  142.1385  166.8502 C.3     1  UNL1        0.0970
     17 C         142.0866  142.0821  168.2104 C.3     1  UNL1        0.0391
     18 C         141.4943  141.2077  169.2755 C.3     1  UNL1        0.0739
     19 C         139.0747  140.5229  169.9289 C.3     1  UNL1        0.0897
     20 N         140.1636  141.5532  169.8755 N.3     1  UNL1       -0.2703
     21 C         139.9218  142.9290  170.4219 C.3     1  UNL1        0.0897
@<TRIPOS>BOND
     1    19    20    1
     2    20    21    1
     3    20    18    1
     4    18    17    1
     5    17    16    1
     6    16     1    1
     7     1     2    1
     8     2     3   ar
     9     3     4   ar
    10     4     5   ar
    11     5     6   ar
    12     6     7   ar
    13     7     8    1
    14     8     9    1
    15     9    10   ar
    16    10    11   ar
    17    11    12   ar
    18    12    13    1
    19    12    14   ar
    20    14    15   ar
    21    15     1    1
    22     7     2   ar
    23    15     9   ar
@<TRIPOS>MOLECULE
*****
 21 23 0 0 0
SMALL
GASTEIGER

@<TRIPOS>ATOM
      1 N         141.6644  141.1024  165.7704 N.pl3   1  UNL1       -0.2860
      2 C         142.9519  141.2132  165.0087 C.ar    1  UNL1        0.0576
      3 C         143.8098  142.4343  165.1596 C.ar    1  UNL1        0.0153
      4 C         145.0973  142.5451  164.3979 C.ar    1  UNL1        0.0013
      5 C         145.5267  141.4348  163.4853 C.ar    1  UNL1        0.0006
      6 C         144.6687  140.2137  163.3344 C.ar    1  UNL1        0.0077
      7 C         143.3813  140.1029  164.0961 C.ar    1  UNL1        0.0431
      8 S         142.5232  138.8818  163.9453 S.3     1  UNL1       -0.0844
      9 C         141.2358  138.7711  164.7070 C.ar    1  UNL1        0.0431
     10 C         140.3778  137.5499  164.5561 C.ar    1  UNL1        0.0086
     11 C         139.0903  137.4392  165.3178 C.ar    1  UNL1        0.0120
     12 C         138.6609  138.5495  166.2304 C.ar    1  UNL1        0.0589
     13 CL        137.3735  138.4387  166.9920 Cl      1  UNL1       -0.0822
     14 C         139.5189  139.7705  166.3813 C.ar    1  UNL1        0.0267
     15 C         140.8064  139.8814  165.6195 C.ar    1  UNL1        0.0585
     16 C         141.2349  142.2127  166.6830 C.3     1  UNL1        0.0970
     17 C         140.2688  143.2520  166.1967 C.3     1  UNL1        0.0391
     18 C         139.8064  143.2369  164.7699 C.3     1  UNL1        0.0739
     19 C         139.0680  144.9404  162.9524 C.3     1  UNL1        0.0897
     20 N         140.1231  144.3919  163.8666 N.3     1  UNL1       -0.2703
     21 C         141.4950  144.9984  163.8777 C.3     1  UNL1        0.0897
@<TRIPOS>BOND
     1    19    20    1
     2    20    21    1
     3    20    18    1
     4    18    17    1
     5    17    16    1
     6    16     1    1
     7     1     2    1
     8     2     3   ar
     9     3     4   ar
    10     4     5   ar
    11     5     6   ar
    12     6     7   ar
    13     7     8    1
    14     8     9    1
    15     9    10   ar
    16    10    11   ar
    17    11    12   ar
    18    12    13    1
    19    12    14   ar
    20    14    15   ar
    21    15     1    1
    22     7     2   ar
    23    15     9   ar
@<TRIPOS>MOLECULE
*****
 21 23 0 0 0
SMALL
GASTEIGER

@<TRIPOS>ATOM
      1 N         140.7706  142.5143  165.0484 N.pl3   1  UNL1       -0.2860
      2 C         141.9251  142.9751  164.2088 C.ar    1  UNL1        0.0576
      3 C         142.2971  144.4279  164.1776 C.ar    1  UNL1        0.0153
      4 C         143.4515  144.8886  163.3380 C.ar    1  UNL1        0.0013
      5 C         144.2341  143.8965  162.5297 C.ar    1  UNL1        0.0006
      6 C         143.8621  142.4437  162.5609 C.ar    1  UNL1        0.0077
      7 C         142.7077  141.9830  163.4005 C.ar    1  UNL1        0.0431
      8 S         142.3357  140.5301  163.4317 S.3     1  UNL1       -0.0844
      9 C         141.1812  140.0694  164.2713 C.ar    1  UNL1        0.0431
     10 C         140.8092  138.6166  164.3026 C.ar    1  UNL1        0.0086
     11 C         139.6548  138.1559  165.1422 C.ar    1  UNL1        0.0120
     12 C         138.8722  139.1480  165.9505 C.ar    1  UNL1        0.0589
     13 CL        137.7178  138.6873  166.7900 Cl      1  UNL1       -0.0822
     14 C         139.2442  140.6007  165.9192 C.ar    1  UNL1        0.0267
     15 C         140.3987  141.0615  165.0796 C.ar    1  UNL1        0.0585
     16 C         139.9881  143.5064  165.8567 C.3     1  UNL1        0.0970
     17 C         138.9696  144.3816  165.1884 C.3     1  UNL1        0.0391
     18 C         137.7888  143.7658  164.4981 C.3     1  UNL1        0.0739
     19 C         137.3176  141.7008  162.9934 C.3     1  UNL1        0.0897
     20 N         137.9756  143.0324  163.2030 N.3     1  UNL1       -0.2703
     21 C         138.8204  143.6307  162.1174 C.3     1  UNL1        0.0897
@<TRIPOS>BOND
     1    19    20    1
     2    20    21    1
     3    20    18    1
     4    18    17    1
     5    17    16    1
     6    16     1    1
     7     1     2    1
     8     2     3   ar
     9     3     4   ar
    10     4     5   ar
    11     5     6   ar
    12     6     7   ar
    13     7     8    1
    14     8     9    1
    15     9    10   ar
    16    10    11   ar
    17    11    12   ar
    18    12    13    1
    19    12    14   ar
    20    14    15   ar
    21    15     1    1
    22     7     2   ar
    23    15     9   ar
@<TRIPOS>MOLECULE
*****
 21 23 0 0 0
SMALL
GASTEIGER

@<TRIPOS>ATOM
      1 N         141.4916  140.5177  165.8609 N.pl3   1  UNL1       -0.2860
      2 C         140.3009  139.6211  166.0298 C.ar    1  UNL1        0.0576
      3 C         139.2904  139.9099  167.1000 C.ar    1  UNL1        0.0153
      4 C         138.0998  139.0133  167.2688 C.ar    1  UNL1        0.0013
      5 C         137.9198  137.8278  166.3676 C.ar    1  UNL1        0.0006
      6 C         138.9303  137.5390  165.2974 C.ar    1  UNL1        0.0077
      7 C         140.1209  138.4356  165.1285 C.ar    1  UNL1        0.0431
      8 S         141.1315  138.1468  164.0583 S.3     1  UNL1       -0.0844
      9 C         142.3221  139.0435  163.8894 C.ar    1  UNL1        0.0431
     10 C         143.3328  138.7547  162.8192 C.ar    1  UNL1        0.0086
     11 C         144.5233  139.6513  162.6503 C.ar    1  UNL1        0.0120
     12 C         144.7033  140.8367  163.5516 C.ar    1  UNL1        0.0589
     13 CL        145.8939  141.7333  163.3827 Cl      1  UNL1       -0.0822
     14 C         143.6928  141.1255  164.6218 C.ar    1  UNL1        0.0267
     15 C         142.5021  140.2289  164.7907 C.ar    1  UNL1        0.0585
     16 C         141.6716  141.7032  166.7622 C.3     1  UNL1        0.0970
     17 C         142.4790  141.5735  168.0196 C.3     1  UNL1        0.0391
     18 C         141.7911  141.5348  169.3520 C.3     1  UNL1        0.0739
     19 C         142.4084  139.0647  169.8697 C.3     1  UNL1        0.0897
     20 N         141.4546  140.2168  169.9843 N.3     1  UNL1       -0.2703
     21 C         140.1644  140.0508  170.7311 C.3     1  UNL1        0.0897
@<TRIPOS>BOND
     1    19    20    1
     2    20    21    1
     3    20    18    1
     4    18    17    1
     5    17    16    1
     6    16     1    1
     7     1     2    1
     8     2     3   ar
     9     3     4   ar
    10     4     5   ar
    11     5     6   ar
    12     6     7   ar
    13     7     8    1
    14     8     9    1
    15     9    10   ar
    16    10    11   ar
    17    11    12   ar
    18    12    13    1
    19    12    14   ar
    20    14    15   ar
    21    15     1    1
    22     7     2   ar
    23    15     9   ar
@<TRIPOS>MOLECULE
*****
 21 23 0 0 0
SMALL
GASTEIGER

@<TRIPOS>ATOM
      1 N         139.2759  140.4398  166.1402 N.pl3   1  UNL1       -0.2860
      2 C         138.9275  141.3994  165.0411 C.ar    1  UNL1        0.0576
      3 C         137.7272  141.1471  164.1777 C.ar    1  UNL1        0.0153
      4 C         137.3788  142.1067  163.0788 C.ar    1  UNL1        0.0013
      5 C         138.2307  143.3186  162.8433 C.ar    1  UNL1        0.0006
      6 C         139.4311  143.5709  163.7067 C.ar    1  UNL1        0.0077
      7 C         139.7794  142.6113  164.8056 C.ar    1  UNL1        0.0431
      8 S         140.9798  142.8636  165.6691 S.3     1  UNL1       -0.0844
      9 C         141.3282  141.9040  166.7681 C.ar    1  UNL1        0.0431
     10 C         142.5285  142.1563  167.6316 C.ar    1  UNL1        0.0086
     11 C         142.8769  141.1966  168.7305 C.ar    1  UNL1        0.0120
     12 C         142.0250  139.9847  168.9660 C.ar    1  UNL1        0.0589
     13 CL        142.3734  139.0251  170.0650 Cl      1  UNL1       -0.0822
     14 C         140.8247  139.7324  168.1026 C.ar    1  UNL1        0.0267
     15 C         140.4762  140.6921  167.0036 C.ar    1  UNL1        0.0585
     16 C         138.4240  139.2278  166.3757 C.3     1  UNL1        0.0970
     17 C         138.6282  137.9948  165.5463 C.3     1  UNL1        0.0391
     18 C         139.9257  137.7831  164.8241 C.3     1  UNL1        0.0739
     19 C         141.2581  137.5943  162.6016 C.3     1  UNL1        0.0897
     20 N         139.9538  137.7566  163.3246 N.3     1  UNL1       -0.2703
     21 C         138.6777  137.8923  162.5480 C.3     1  UNL1        0.0897
@<TRIPOS>BOND
     1    19    20    1
     2    20    21    1
     3    20    18    1
     4    18    17    1
     5    17    16    1
     6    16     1    1
     7     1     2    1
     8     2     3   ar
     9     3     4   ar
    10     4     5   ar
    11     5     6   ar
    12     6     7   ar
    13     7     8    1
    14     8     9    1
    15     9    10   ar
    16    10    11   ar
    17    11    12   ar
    18    12    13    1
    19    12    14   ar
    20    14    15   ar
    21    15     1    1
    22     7     2   ar
    23    15     9   ar
@<TRIPOS>MOLECULE
*****
 21 23 0 0 0
SMALL
GASTEIGER

@<TRIPOS>ATOM
      1 N         140.6240  141.3835  165.4603 N.pl3   1  UNL1       -0.2860
      2 C         140.2415  140.1656  164.6726 C.ar    1  UNL1        0.0576
      3 C         140.5539  140.0914  163.2074 C.ar    1  UNL1        0.0153
      4 C         140.1714  138.8735  162.4197 C.ar    1  UNL1        0.0013
      5 C         139.4765  137.7299  163.0973 C.ar    1  UNL1        0.0006
      6 C         139.1640  137.8040  164.5624 C.ar    1  UNL1        0.0077
      7 C         139.5465  139.0219  165.3501 C.ar    1  UNL1        0.0431
      8 S         139.2341  139.0961  166.8154 S.3     1  UNL1       -0.0844
      9 C         139.6166  140.3140  167.6030 C.ar    1  UNL1        0.0431
     10 C         139.3042  140.3882  169.0683 C.ar    1  UNL1        0.0086
     11 C         139.6867  141.6061  169.8560 C.ar    1  UNL1        0.0120
     12 C         140.3816  142.7498  169.1784 C.ar    1  UNL1        0.0589
     13 CL        140.7641  143.9676  169.9661 Cl      1  UNL1       -0.0822
     14 C         140.6941  142.6756  167.7133 C.ar    1  UNL1        0.0267
     15 C         140.3116  141.4577  166.9255 C.ar    1  UNL1        0.0585
     16 C         141.3189  142.5272  164.7828 C.3     1  UNL1        0.0970
     17 C         142.8164  142.6114  164.8005 C.3     1  UNL1        0.0391
     18 C         143.6295  141.4232  165.2212 C.3     1  UNL1        0.0739
     19 C         145.7349  141.5842  163.7074 C.3     1  UNL1        0.0897
     20 N         144.5869  140.7896  164.2557 N.3     1  UNL1       -0.2703
     21 C         144.3962  139.3615  163.8385 C.3     1  UNL1        0.0897
@<TRIPOS>BOND
     1    19    20    1
     2    20    21    1
     3    20    18    1
     4    18    17    1
     5    17    16    1
     6    16     1    1
     7     1     2    1
     8     2     3   ar
     9     3     4   ar
    10     4     5   ar
    11     5     6   ar
    12     6     7   ar
    13     7     8    1
    14     8     9    1
    15     9    10   ar
    16    10    11   ar
    17    11    12   ar
    18    12    13    1
    19    12    14   ar
    20    14    15   ar
    21    15     1    1
    22     7     2   ar
    23    15     9   ar
@<TRIPOS>MOLECULE
*****
 21 23 0 0 0
SMALL
GASTEIGER

@<TRIPOS>ATOM
      1 N         142.0451  139.2675  166.1419 N.pl3   1  UNL1       -0.2860
      2 C         140.9380  138.9033  165.1976 C.ar    1  UNL1        0.0576
      3 C         141.0890  137.7228  164.2845 C.ar    1  UNL1        0.0153
      4 C         139.9819  137.3586  163.3403 C.ar    1  UNL1        0.0013
      5 C         138.7238  138.1749  163.3091 C.ar    1  UNL1        0.0006
      6 C         138.5728  139.3553  164.2221 C.ar    1  UNL1        0.0077
      7 C         139.6799  139.7195  165.1664 C.ar    1  UNL1        0.0431
      8 S         139.5289  140.9000  166.0795 S.3     1  UNL1       -0.0844
      9 C         140.6360  141.2642  167.0237 C.ar    1  UNL1        0.0431
     10 C         140.4851  142.4447  167.9369 C.ar    1  UNL1        0.0086
     11 C         141.5922  142.8089  168.8811 C.ar    1  UNL1        0.0120
     12 C         142.8503  141.9927  168.9123 C.ar    1  UNL1        0.0589
     13 CL        143.9574  142.3569  169.8566 Cl      1  UNL1       -0.0822
     14 C         143.0013  140.8122  167.9993 C.ar    1  UNL1        0.0267
     15 C         141.8941  140.4480  167.0549 C.ar    1  UNL1        0.0585
     16 C         143.3032  138.4513  166.1731 C.3     1  UNL1        0.0970
     17 C         144.4904  138.8718  165.3585 C.3     1  UNL1        0.0391
     18 C         144.2912  139.4938  164.0082 C.3     1  UNL1        0.0739
     19 C         145.7283  141.6412  163.7370 C.3     1  UNL1        0.0897
     20 N         144.3853  140.9821  163.8467 N.3     1  UNL1       -0.2703
     21 C         143.1365  141.8114  163.7950 C.3     1  UNL1        0.0897
@<TRIPOS>BOND
     1    19    20    1
     2    20    21    1
     3    20    18    1
     4    18    17    1
     5    17    16    1
     6    16     1    1
     7     1     2    1
     8     2     3   ar
     9     3     4   ar
    10     4     5   ar
    11     5     6   ar
    12     6     7   ar
    13     7     8    1
    14     8     9    1
    15     9    10   ar
    16    10    11   ar
    17    11    12   ar
    18    12    13    1
    19    12    14   ar
    20    14    15   ar
    21    15     1    1
    22     7     2   ar
    23    15     9   ar
@<TRIPOS>MOLECULE
*****
 21 23 0 0 0
SMALL
GASTEIGER

@<TRIPOS>ATOM
      1 N         140.5951  141.3206  165.4722 N.pl3   1  UNL1       -0.2860
      2 C         140.1737  140.1110  164.6915 C.ar    1  UNL1        0.0576
      3 C         140.4738  140.0232  163.2245 C.ar    1  UNL1        0.0153
      4 C         140.0524  138.8137  162.4439 C.ar    1  UNL1        0.0013
      5 C         139.3309  137.6919  163.1303 C.ar    1  UNL1        0.0006
      6 C         139.0308  137.7798  164.5973 C.ar    1  UNL1        0.0077
      7 C         139.4522  138.9893  165.3779 C.ar    1  UNL1        0.0431
      8 S         139.1522  139.0772  166.8450 S.3     1  UNL1       -0.0844
      9 C         139.5736  140.2867  167.6256 C.ar    1  UNL1        0.0431
     10 C         139.2735  140.3746  169.0927 C.ar    1  UNL1        0.0086
     11 C         139.6949  141.5841  169.8733 C.ar    1  UNL1        0.0120
     12 C         140.4164  142.7059  169.1869 C.ar    1  UNL1        0.0589
     13 CL        140.8378  143.9154  169.9675 Cl      1  UNL1       -0.0822
     14 C         140.7165  142.6180  167.7199 C.ar    1  UNL1        0.0267
     15 C         140.2951  141.4084  166.9392 C.ar    1  UNL1        0.0585
     16 C         141.3166  142.4424  164.7857 C.3     1  UNL1        0.0970
     17 C         140.5628  143.6641  164.3511 C.3     1  UNL1        0.0391
     18 C         139.0703  143.6141  164.2106 C.3     1  UNL1        0.0739
     19 C         138.9480  143.2783  161.6372 C.3     1  UNL1        0.0897
     20 N         138.4513  142.9531  163.0147 N.3     1  UNL1       -0.2703
     21 C         137.3356  141.9671  163.1964 C.3     1  UNL1        0.0897
@<TRIPOS>BOND
     1    19    20    1
     2    20    21    1
     3    20    18    1
     4    18    17    1
     5    17    16    1
     6    16     1    1
     7     1     2    1
     8     2     3   ar
     9     3     4   ar
    10     4     5   ar
    11     5     6   ar
    12     6     7   ar
    13     7     8    1
    14     8     9    1
    15     9    10   ar
    16    10    11   ar
    17    11    12   ar
    18    12    13    1
    19    12    14   ar
    20    14    15   ar
    21    15     1    1
    22     7     2   ar
    23    15     9   ar
@<TRIPOS>MOLECULE
*****
 21 23 0 0 0
SMALL
GASTEIGER

@<TRIPOS>ATOM
      1 N         140.9596  141.5815  165.9101 N.pl3   1  UNL1       -0.2860
      2 C         140.5602  142.7791  165.0999 C.ar    1  UNL1        0.0576
      3 C         139.3484  143.5749  165.4851 C.ar    1  UNL1        0.0153
      4 C         138.9490  144.7724  164.6750 C.ar    1  UNL1        0.0013
      5 C         139.7614  145.1742  163.4797 C.ar    1  UNL1        0.0006
      6 C         140.9731  144.3785  163.0946 C.ar    1  UNL1        0.0077
      7 C         141.3725  143.1809  163.9047 C.ar    1  UNL1        0.0431
      8 S         142.5844  142.3851  163.5196 S.3     1  UNL1       -0.0844
      9 C         142.9838  141.1876  164.3297 C.ar    1  UNL1        0.0431
     10 C         144.1956  140.3918  163.9446 C.ar    1  UNL1        0.0086
     11 C         144.5950  139.1943  164.7547 C.ar    1  UNL1        0.0120
     12 C         143.7826  138.7925  165.9499 C.ar    1  UNL1        0.0589
     13 CL        144.1820  137.5949  166.7601 Cl      1  UNL1       -0.0822
     14 C         142.5709  139.5882  166.3351 C.ar    1  UNL1        0.0267
     15 C         142.1714  140.7858  165.5249 C.ar    1  UNL1        0.0585
     16 C         140.1473  141.1797  167.1053 C.3     1  UNL1        0.0970
     17 C         140.4205  141.8032  168.4419 C.3     1  UNL1        0.0391
     18 C         141.7397  142.4672  168.7041 C.3     1  UNL1        0.0739
     19 C         142.5698  140.3386  169.9412 C.3     1  UNL1        0.0897
     20 N         142.7922  141.7554  169.5015 N.3     1  UNL1       -0.2703
     21 C         144.0670  142.4603  169.8590 C.3     1  UNL1        0.0897
@<TRIPOS>BOND
     1    19    20    1
     2    20    21    1
     3    20    18    1
     4    18    17    1
     5    17    16    1
     6    16     1    1
     7     1     2    1
     8     2     3   ar
     9     3     4   ar
    10     4     5   ar
    11     5     6   ar
    12     6     7   ar
    13     7     8    1
    14     8     9    1
    15     9    10   ar
    16    10    11   ar
    17    11    12   ar
    18    12    13    1
    19    12    14   ar
    20    14    15   ar
    21    15     1    1
    22     7     2   ar
    23    15     9   ar
