@<TRIPOS>MOLECULE
*****
 26 28 0 0 0
SMALL
GASTEIGER

@<TRIPOS>ATOM
      1 C         138.5003  139.1001  165.8906 C.ar    1  UNL1       -0.0001
      2 C         138.8288  137.7757  165.2679 C.ar    1  UNL1       -0.0003
      3 C         138.9103  137.6481  163.7755 C.ar    1  UNL1       -0.0031
      4 C         138.6633  138.8450  162.9059 C.ar    1  UNL1       -0.0071
      5 C         138.3348  140.1695  163.5286 C.ar    1  UNL1       -0.0071
      6 C         138.2533  140.2971  165.0209 C.ar    1  UNL1       -0.0031
      7 C         138.1423  141.1661  162.4240 C.3     1  UNL1        0.1222
      8 N         138.3519  140.4574  161.1187 N.3     1  UNL1       -0.1466
      9 C         138.6739  139.0230  161.4165 C.3     1  UNL1        0.1222
     10 S         138.2563  141.0748  159.7550 S.O2    1  UNL1        0.0654
     11 O         138.4095  142.4382  160.3615 O.2     1  UNL1       -0.1527
     12 O         138.1031  139.7115  159.1485 O.2     1  UNL1       -0.1527
     13 C         138.1607  141.6922  158.3913 C.ar    1  UNL1        0.1413
     14 C         137.3123  141.0490  157.3346 C.ar    1  UNL1        0.0231
     15 C         137.2167  141.6663  155.9709 C.ar    1  UNL1        0.0221
     16 C         137.9696  142.9269  155.6638 C.ar    1  UNL1        0.0990
     17 N         138.8180  143.5701  156.7205 N.ar    1  UNL1       -0.2409
     18 C         138.9136  142.9527  158.0842 C.ar    1  UNL1        0.1187
     19 C         139.4644  140.0038  168.1275 C.2     1  UNL1        0.0598
     20 C         138.4189  139.2277  167.3829 C.2     1  UNL1        0.0047
     21 O         138.0626  139.9773  170.3148 O.2     1  UNL1       -0.2681
     22 C         139.3830  140.1313  169.6198 C.2     1  UNL1        0.2679
     23 N         140.6219  140.4129  170.4173 N.am    1  UNL1       -0.1934
     24 O         140.5404  140.5404  171.9096 O.3     1  UNL1       -0.2949
     25 H         141.4885  140.5139  169.9611 H       1  UNL1        0.1825
     26 H         139.6220  140.4146  172.1952 H       1  UNL1        0.2414
@<TRIPOS>BOND
     1    21    22    2
     2    22    19    1
     3    19    20    2
     4    20     1    1
     5     1     2   ar
     6     2     3   ar
     7     3     4   ar
     8     4     5   ar
     9     5     6   ar
    10     5     7    1
    11     7     8    1
    12     8    10    1
    13    10    11    2
    14    10    12    2
    15    10    13    1
    16    13    14   ar
    17    14    15   ar
    18    15    16   ar
    19    16    17   ar
    20    17    18   ar
    21     8     9    1
    22    22    23   am
    23    23    24    1
    24     6     1   ar
    25    18    13   ar
    26     9     4    1
    27    23    25    1
    28    24    26    1
@<TRIPOS>MOLECULE
*****
 26 28 0 0 0
SMALL
GASTEIGER

@<TRIPOS>ATOM
      1 C         140.3952  143.0982  166.5341 C.ar    1  UNL1       -0.0001
      2 C         139.2683  144.0862  166.4713 C.ar    1  UNL1       -0.0003
      3 C         138.9525  144.7826  165.1809 C.ar    1  UNL1       -0.0031
      4 C         139.7635  144.4910  163.9532 C.ar    1  UNL1       -0.0071
      5 C         140.8903  143.5030  164.0160 C.ar    1  UNL1       -0.0071
      6 C         141.2062  142.8066  165.3065 C.ar    1  UNL1       -0.0031
      7 C         141.5105  143.4199  162.6527 C.3     1  UNL1        0.1222
      8 N         140.7669  144.3566  161.7474 N.3     1  UNL1       -0.1466
      9 C         139.6872  145.0186  162.5512 C.3     1  UNL1        0.1222
     10 S         141.0528  144.5903  160.2935 S.O2    1  UNL1        0.0654
     11 O         139.6051  144.9056  160.0595 O.2     1  UNL1       -0.1527
     12 O         142.5005  144.2751  160.5275 O.2     1  UNL1       -0.1527
     13 C         141.3387  144.8241  158.8397 C.ar    1  UNL1        0.1413
     14 C         142.3827  144.0055  158.1396 C.ar    1  UNL1        0.0231
     15 C         142.6686  144.2392  156.6858 C.ar    1  UNL1        0.0221
     16 C         141.9106  145.2915  155.9320 C.ar    1  UNL1        0.0990
     17 N         140.8666  146.1101  156.6321 N.ar    1  UNL1       -0.2409
     18 C         140.5807  145.8763  158.0860 C.ar    1  UNL1        0.1187
     19 C         140.4635  143.0954  169.1313 C.2     1  UNL1        0.0598
     20 C         140.7110  142.4017  167.8246 C.2     1  UNL1        0.0047
     21 O         139.9385  142.6546  171.6373 O.2     1  UNL1       -0.2681
     22 C         140.7793  142.3989  170.4217 C.2     1  UNL1        0.2679
     23 N         141.9360  141.4468  170.4966 N.am    1  UNL1       -0.1934
     24 O         142.2519  140.7504  171.7870 O.3     1  UNL1       -0.2949
     25 H         142.4879  141.2790  169.6988 H       1  UNL1        0.1825
     26 H         141.6168  141.0254  172.4667 H       1  UNL1        0.2414
@<TRIPOS>BOND
     1    21    22    2
     2    22    19    1
     3    19    20    2
     4    20     1    1
     5     1     2   ar
     6     2     3   ar
     7     3     4   ar
     8     4     5   ar
     9     5     6   ar
    10     5     7    1
    11     7     8    1
    12     8    10    1
    13    10    11    2
    14    10    12    2
    15    10    13    1
    16    13    14   ar
    17    14    15   ar
    18    15    16   ar
    19    16    17   ar
    20    17    18   ar
    21     8     9    1
    22    22    23   am
    23    23    24    1
    24     6     1   ar
    25    18    13   ar
    26     9     4    1
    27    23    25    1
    28    24    26    1
@<TRIPOS>MOLECULE
*****
 26 28 0 0 0
SMALL
GASTEIGER

@<TRIPOS>ATOM
      1 C         142.3515  139.0732  169.7461 C.ar    1  UNL1       -0.0001
      2 C         141.0923  139.6549  170.3170 C.ar    1  UNL1       -0.0003
      3 C         140.1044  140.3348  169.4159 C.ar    1  UNL1       -0.0031
      4 C         140.3759  140.4330  167.9440 C.ar    1  UNL1       -0.0071
      5 C         141.6351  139.8514  167.3731 C.ar    1  UNL1       -0.0071
      6 C         142.6229  139.1715  168.2742 C.ar    1  UNL1       -0.0031
      7 C         141.6309  140.0989  165.8936 C.3     1  UNL1        0.1222
      8 N         140.3691  140.8336  165.5502 N.3     1  UNL1       -0.1466
      9 C         139.5934  141.0401  166.8174 C.3     1  UNL1        0.1222
     10 S         139.9554  141.2829  164.1801 S.O2    1  UNL1        0.0654
     11 O         138.7292  141.9232  164.7603 O.2     1  UNL1       -0.1527
     12 O         141.1816  140.6426  163.6000 O.2     1  UNL1       -0.1527
     13 C         139.5418  141.7322  162.8101 C.ar    1  UNL1        0.1413
     14 C         140.4197  141.4422  161.6288 C.ar    1  UNL1        0.0231
     15 C         140.0061  141.8915  160.2588 C.ar    1  UNL1        0.0221
     16 C         138.7146  142.6307  160.0699 C.ar    1  UNL1        0.0990
     17 N         137.8368  142.9207  161.2511 N.ar    1  UNL1       -0.2409
     18 C         138.2504  142.4714  162.6212 C.ar    1  UNL1        0.1187
     19 C         143.6452  136.9367  170.4612 C.2     1  UNL1        0.0598
     20 C         143.3393  138.3933  170.6472 C.2     1  UNL1        0.0047
     21 O         146.0126  136.8225  171.5253 O.2     1  UNL1       -0.2681
     22 C         144.6330  136.2567  171.3623 C.2     1  UNL1        0.2679
     23 N         144.2412  135.0110  172.1004 N.am    1  UNL1       -0.1934
     24 O         145.2290  134.3311  173.0015 O.3     1  UNL1       -0.2949
     25 H         143.3357  134.6397  171.9934 H       1  UNL1        0.1825
     26 H         146.0655  134.8222  172.9933 H       1  UNL1        0.2414
@<TRIPOS>BOND
     1    21    22    2
     2    22    19    1
     3    19    20    2
     4    20     1    1
     5     1     2   ar
     6     2     3   ar
     7     3     4   ar
     8     4     5   ar
     9     5     6   ar
    10     5     7    1
    11     7     8    1
    12     8    10    1
    13    10    11    2
    14    10    12    2
    15    10    13    1
    16    13    14   ar
    17    14    15   ar
    18    15    16   ar
    19    16    17   ar
    20    17    18   ar
    21     8     9    1
    22    22    23   am
    23    23    24    1
    24     6     1   ar
    25    18    13   ar
    26     9     4    1
    27    23    25    1
    28    24    26    1
@<TRIPOS>MOLECULE
*****
 26 28 0 0 0
SMALL
GASTEIGER

@<TRIPOS>ATOM
      1 C         141.2980  142.3913  166.9254 C.ar    1  UNL1       -0.0001
      2 C         142.7940  142.4440  166.8294 C.ar    1  UNL1       -0.0003
      3 C         143.4492  142.8493  165.5424 C.ar    1  UNL1       -0.0031
      4 C         142.6084  143.2019  164.3513 C.ar    1  UNL1       -0.0071
      5 C         141.1124  143.1492  164.4473 C.ar    1  UNL1       -0.0071
      6 C         140.4572  142.7439  165.7344 C.ar    1  UNL1       -0.0031
      7 C         140.5481  143.5491  163.1162 C.3     1  UNL1        0.1222
      8 N         141.6953  143.8489  162.1976 N.3     1  UNL1       -0.1466
      9 C         142.9686  143.6344  162.9609 C.3     1  UNL1        0.1222
     10 S         141.5881  144.2865  160.7668 S.O2    1  UNL1        0.0654
     11 O         143.0256  143.9186  160.5466 O.2     1  UNL1       -0.1527
     12 O         140.1508  144.6543  160.9870 O.2     1  UNL1       -0.1527
     13 C         141.4809  144.7241  159.3361 C.ar    1  UNL1        0.1413
     14 C         140.3625  145.6284  158.9102 C.ar    1  UNL1        0.0231
     15 C         140.2553  146.0659  157.4794 C.ar    1  UNL1        0.0221
     16 C         141.2665  145.5992  156.4746 C.ar    1  UNL1        0.0990
     17 N         142.3849  144.6949  156.9005 N.ar    1  UNL1       -0.2409
     18 C         142.4921  144.2573  158.3313 C.ar    1  UNL1        0.1187
     19 C         141.4312  141.2528  169.2569 C.2     1  UNL1        0.0598
     20 C         140.6429  141.9860  168.2125 C.2     1  UNL1        0.0047
     21 O         140.7351  141.8042  171.6985 O.2     1  UNL1       -0.2681
     22 C         140.7760  140.8475  170.5440 C.2     1  UNL1        0.2679
     23 N         140.1618  139.4854  170.6765 N.am    1  UNL1       -0.1934
     24 O         139.5066  139.0801  171.9635 O.3     1  UNL1       -0.2949
     25 H         140.1887  138.8575  169.9187 H       1  UNL1        0.1825
     26 H         139.5672  139.8089  172.6007 H       1  UNL1        0.2414
@<TRIPOS>BOND
     1    21    22    2
     2    22    19    1
     3    19    20    2
     4    20     1    1
     5     1     2   ar
     6     2     3   ar
     7     3     4   ar
     8     4     5   ar
     9     5     6   ar
    10     5     7    1
    11     7     8    1
    12     8    10    1
    13    10    11    2
    14    10    12    2
    15    10    13    1
    16    13    14   ar
    17    14    15   ar
    18    15    16   ar
    19    16    17   ar
    20    17    18   ar
    21     8     9    1
    22    22    23   am
    23    23    24    1
    24     6     1   ar
    25    18    13   ar
    26     9     4    1
    27    23    25    1
    28    24    26    1
@<TRIPOS>MOLECULE
*****
 26 28 0 0 0
SMALL
GASTEIGER

@<TRIPOS>ATOM
      1 C         142.5405  142.5541  165.9787 C.ar    1  UNL1       -0.0001
      2 C         143.9192  142.9501  165.5401 C.ar    1  UNL1       -0.0003
      3 C         144.1470  143.4530  164.1454 C.ar    1  UNL1       -0.0031
      4 C         142.9962  143.5599  163.1893 C.ar    1  UNL1       -0.0071
      5 C         141.6175  143.1638  163.6279 C.ar    1  UNL1       -0.0071
      6 C         141.3897  142.6609  165.0226 C.ar    1  UNL1       -0.0031
      7 C         140.6846  143.3763  162.4726 C.3     1  UNL1        0.1222
      8 N         141.4867  143.9036  161.3200 N.3     1  UNL1       -0.1466
      9 C         142.9154  144.0171  161.7630 C.3     1  UNL1        0.1222
     10 S         140.9539  144.2557  159.9628 S.O2    1  UNL1        0.0654
     11 O         142.3518  144.2756  159.4191 O.2     1  UNL1       -0.1527
     12 O         139.5560  144.2357  160.5064 O.2     1  UNL1       -0.1527
     13 C         140.4210  144.6077  158.6056 C.ar    1  UNL1        0.1413
     14 C         140.7706  145.9261  157.9814 C.ar    1  UNL1        0.0231
     15 C         140.2376  146.2782  156.6242 C.ar    1  UNL1        0.0221
     16 C         139.3551  145.3118  155.8911 C.ar    1  UNL1        0.0990
     17 N         139.0055  143.9934  156.5153 N.ar    1  UNL1       -0.2409
     18 C         139.5385  143.6414  157.8726 C.ar    1  UNL1        0.1187
     19 C         143.2895  142.3875  168.4609 C.2     1  UNL1        0.0598
     20 C         142.3127  142.0512  167.3734 C.2     1  UNL1        0.0047
     21 O         143.4345  140.4770  170.2156 O.2     1  UNL1       -0.2681
     22 C         143.0617  141.8846  169.8556 C.2     1  UNL1        0.2679
     23 N         142.4609  142.7893  170.8903 N.am    1  UNL1       -0.1934
     24 O         142.2331  142.2864  172.2850 O.3     1  UNL1       -0.2949
     25 H         142.2162  143.7132  170.6540 H       1  UNL1        0.1825
     26 H         142.5267  141.3641  172.3481 H       1  UNL1        0.2414
@<TRIPOS>BOND
     1    21    22    2
     2    22    19    1
     3    19    20    2
     4    20     1    1
     5     1     2   ar
     6     2     3   ar
     7     3     4   ar
     8     4     5   ar
     9     5     6   ar
    10     5     7    1
    11     7     8    1
    12     8    10    1
    13    10    11    2
    14    10    12    2
    15    10    13    1
    16    13    14   ar
    17    14    15   ar
    18    15    16   ar
    19    16    17   ar
    20    17    18   ar
    21     8     9    1
    22    22    23   am
    23    23    24    1
    24     6     1   ar
    25    18    13   ar
    26     9     4    1
    27    23    25    1
    28    24    26    1
@<TRIPOS>MOLECULE
*****
 26 28 0 0 0
SMALL
GASTEIGER

@<TRIPOS>ATOM
      1 C         139.0861  139.8139  166.5006 C.ar    1  UNL1       -0.0001
      2 C         138.8135  138.4936  165.8430 C.ar    1  UNL1       -0.0003
      3 C         138.6733  138.4133  164.3517 C.ar    1  UNL1       -0.0031
      4 C         138.8057  139.6532  163.5181 C.ar    1  UNL1       -0.0071
      5 C         139.0783  140.9734  164.1757 C.ar    1  UNL1       -0.0071
      6 C         139.2185  141.0538  165.6670 C.ar    1  UNL1       -0.0031
      7 C         139.1583  142.0182  163.1023 C.3     1  UNL1        0.1222
      8 N         138.9351  141.3436  161.7813 N.3     1  UNL1       -0.1466
      9 C         138.7172  139.8819  162.0383 C.3     1  UNL1        0.1222
     10 S         138.9307  142.0131  160.4390 S.O2    1  UNL1        0.0654
     11 O         138.2069  143.1879  161.0273 O.2     1  UNL1       -0.1527
     12 O         139.6544  140.8384  159.8507 O.2     1  UNL1       -0.1527
     13 C         138.9262  142.6825  159.0967 C.ar    1  UNL1        0.1413
     14 C         138.0420  142.1626  158.0022 C.ar    1  UNL1        0.0231
     15 C         138.0375  142.8320  156.6599 C.ar    1  UNL1        0.0221
     16 C         138.9173  144.0214  156.4120 C.ar    1  UNL1        0.0990
     17 N         139.8016  144.5413  157.5065 N.ar    1  UNL1       -0.2409
     18 C         139.8060  143.8718  158.8488 C.ar    1  UNL1        0.1187
     19 C         140.5867  140.0153  168.6119 C.2     1  UNL1        0.0598
     20 C         139.2263  139.8942  167.9919 C.2     1  UNL1        0.0047
     21 O         139.5957  139.6614  170.9873 O.2     1  UNL1       -0.2681
     22 C         140.7269  140.0956  170.1032 C.2     1  UNL1        0.2679
     23 N         141.9984  140.6102  170.7103 N.am    1  UNL1       -0.1934
     24 O         142.1386  140.6905  172.2016 O.3     1  UNL1       -0.2949
     25 H         142.7409  140.8952  170.1300 H       1  UNL1        0.1825
     26 H         141.3231  140.3739  172.6205 H       1  UNL1        0.2414
@<TRIPOS>BOND
     1    21    22    2
     2    22    19    1
     3    19    20    2
     4    20     1    1
     5     1     2   ar
     6     2     3   ar
     7     3     4   ar
     8     4     5   ar
     9     5     6   ar
    10     5     7    1
    11     7     8    1
    12     8    10    1
    13    10    11    2
    14    10    12    2
    15    10    13    1
    16    13    14   ar
    17    14    15   ar
    18    15    16   ar
    19    16    17   ar
    20    17    18   ar
    21     8     9    1
    22    22    23   am
    23    23    24    1
    24     6     1   ar
    25    18    13   ar
    26     9     4    1
    27    23    25    1
    28    24    26    1
@<TRIPOS>MOLECULE
*****
 26 28 0 0 0
SMALL
GASTEIGER

@<TRIPOS>ATOM
      1 C         139.6750  139.8419  167.2801 C.ar    1  UNL1       -0.0001
      2 C         138.4077  139.0787  167.0324 C.ar    1  UNL1       -0.0003
      3 C         138.1214  138.5226  165.6690 C.ar    1  UNL1       -0.0031
      4 C         139.1023  138.7297  164.5534 C.ar    1  UNL1       -0.0071
      5 C         140.3696  139.4929  164.8010 C.ar    1  UNL1       -0.0071
      6 C         140.6560  140.0490  166.1644 C.ar    1  UNL1       -0.0031
      7 C         141.1427  139.5372  163.5163 C.3     1  UNL1        0.1222
      8 N         140.3531  138.8013  162.4747 N.3     1  UNL1       -0.1466
      9 C         139.0921  138.3023  163.1156 C.3     1  UNL1        0.1222
     10 S         140.7542  138.5998  161.0433 S.O2    1  UNL1        0.0654
     11 O         142.1105  139.1657  161.3437 O.2     1  UNL1       -0.1527
     12 O         139.3978  138.0341  160.7430 O.2     1  UNL1       -0.1527
     13 C         141.1551  138.3983  159.6120 C.ar    1  UNL1        0.1413
     14 C         140.1180  138.4426  158.5293 C.ar    1  UNL1        0.0231
     15 C         140.5189  138.2411  157.0980 C.ar    1  UNL1        0.0221
     16 C         141.9571  137.9954  156.7494 C.ar    1  UNL1        0.0990
     17 N         142.9942  137.9511  157.8322 N.ar    1  UNL1       -0.2409
     18 C         142.5932  138.1527  159.2635 C.ar    1  UNL1        0.1187
     19 C         140.3752  141.8315  168.7970 C.2     1  UNL1        0.0598
     20 C         139.9614  140.3980  168.6435 C.2     1  UNL1        0.0047
     21 O         139.7755  143.4513  170.7378 O.2     1  UNL1       -0.2681
     22 C         140.6615  142.3876  170.1604 C.2     1  UNL1        0.2679
     23 N         141.8341  141.8800  170.9463 N.am    1  UNL1       -0.1934
     24 O         142.1204  142.4361  172.3096 O.3     1  UNL1       -0.2949
     25 H         142.4156  141.1819  170.5673 H       1  UNL1        0.1825
     26 H         141.4575  143.1090  172.5301 H       1  UNL1        0.2414
@<TRIPOS>BOND
     1    21    22    2
     2    22    19    1
     3    19    20    2
     4    20     1    1
     5     1     2   ar
     6     2     3   ar
     7     3     4   ar
     8     4     5   ar
     9     5     6   ar
    10     5     7    1
    11     7     8    1
    12     8    10    1
    13    10    11    2
    14    10    12    2
    15    10    13    1
    16    13    14   ar
    17    14    15   ar
    18    15    16   ar
    19    16    17   ar
    20    17    18   ar
    21     8     9    1
    22    22    23   am
    23    23    24    1
    24     6     1   ar
    25    18    13   ar
    26     9     4    1
    27    23    25    1
    28    24    26    1
@<TRIPOS>MOLECULE
*****
 26 28 0 0 0
SMALL
GASTEIGER

@<TRIPOS>ATOM
      1 C         141.4264  139.8558  167.5861 C.ar    1  UNL1       -0.0001
      2 C         142.7704  139.1900  167.5707 C.ar    1  UNL1       -0.0003
      3 C         143.3313  138.6623  166.2835 C.ar    1  UNL1       -0.0031
      4 C         142.5482  138.8006  165.0117 C.ar    1  UNL1       -0.0071
      5 C         141.2042  139.4664  165.0271 C.ar    1  UNL1       -0.0071
      6 C         140.6433  139.9940  166.3143 C.ar    1  UNL1       -0.0031
      7 C         140.6668  139.4584  163.6266 C.3     1  UNL1        0.1222
      8 N         141.6787  138.7876  162.7457 N.3     1  UNL1       -0.1466
      9 C         142.8415  138.3810  163.6017 C.3     1  UNL1        0.1222
     10 S         141.5504  138.5627  161.2682 S.O2    1  UNL1        0.0654
     11 O         142.9614  139.0336  161.0740 O.2     1  UNL1       -0.1527
     12 O         140.1396  138.0919  161.4623 O.2     1  UNL1       -0.1527
     13 C         141.4221  138.3379  159.7907 C.ar    1  UNL1        0.1413
     14 C         142.6228  137.9368  158.9860 C.ar    1  UNL1        0.0231
     15 C         142.4945  137.7120  157.5086 C.ar    1  UNL1        0.0221
     16 C         141.1655  137.8882  156.8357 C.ar    1  UNL1        0.0990
     17 N         139.9648  138.2892  157.6404 N.ar    1  UNL1       -0.2409
     18 C         140.0931  138.5140  159.1179 C.ar    1  UNL1        0.1187
     19 C         141.1711  141.7870  169.3052 C.2     1  UNL1        0.0598
     20 C         140.8655  140.3835  168.8734 C.2     1  UNL1        0.0047
     21 O         141.3722  142.1352  171.8720 O.2     1  UNL1       -0.2681
     22 C         140.6102  142.3146  170.5925 C.2     1  UNL1        0.2679
     23 N         139.2873  143.0217  170.6002 N.am    1  UNL1       -0.1934
     24 O         138.7264  143.5494  171.8874 O.3     1  UNL1       -0.2949
     25 H         138.7872  143.1395  169.7603 H       1  UNL1        0.1825
     26 H         139.3393  143.3510  172.6125 H       1  UNL1        0.2414
@<TRIPOS>BOND
     1    21    22    2
     2    22    19    1
     3    19    20    2
     4    20     1    1
     5     1     2   ar
     6     2     3   ar
     7     3     4   ar
     8     4     5   ar
     9     5     6   ar
    10     5     7    1
    11     7     8    1
    12     8    10    1
    13    10    11    2
    14    10    12    2
    15    10    13    1
    16    13    14   ar
    17    14    15   ar
    18    15    16   ar
    19    16    17   ar
    20    17    18   ar
    21     8     9    1
    22    22    23   am
    23    23    24    1
    24     6     1   ar
    25    18    13   ar
    26     9     4    1
    27    23    25    1
    28    24    26    1
@<TRIPOS>MOLECULE
*****
 26 28 0 0 0
SMALL
GASTEIGER

@<TRIPOS>ATOM
      1 C         137.7876  139.5776  161.3521 C.ar    1  UNL1       -0.0001
      2 C         138.0791  138.1216  161.5642 C.ar    1  UNL1       -0.0003
      3 C         138.6540  137.6541  162.8684 C.ar    1  UNL1       -0.0031
      4 C         138.9375  138.6425  163.9604 C.ar    1  UNL1       -0.0071
      5 C         138.6460  140.0985  163.7483 C.ar    1  UNL1       -0.0071
      6 C         138.0710  140.5661  162.4442 C.ar    1  UNL1       -0.0031
      7 C         139.0272  140.8345  164.9986 C.3     1  UNL1        0.1222
      8 N         139.5543  139.8333  165.9833 N.3     1  UNL1       -0.1466
      9 C         139.4988  138.4786  165.3417 C.3     1  UNL1        0.1222
     10 S         140.0499  140.1341  167.3669 S.O2    1  UNL1        0.0654
     11 O         138.8701  139.4114  167.9465 O.2     1  UNL1       -0.1527
     12 O         141.2296  140.8566  166.7872 O.2     1  UNL1       -0.1527
     13 C         140.5455  140.4348  168.7503 C.ar    1  UNL1        0.1413
     14 C         141.9312  140.0279  169.1555 C.ar    1  UNL1        0.0231
     15 C         142.4268  140.3286  170.5389 C.ar    1  UNL1        0.0221
     16 C         141.5367  141.0363  171.5172 C.ar    1  UNL1        0.0990
     17 N         140.1509  141.4431  171.1120 N.ar    1  UNL1       -0.2409
     18 C         139.6554  141.1424  169.7285 C.ar    1  UNL1        0.1187
     19 C         138.1182  140.5759  158.9764 C.2     1  UNL1        0.0598
     20 C         137.2127  140.0452  160.0480 C.2     1  UNL1        0.0047
     21 O         137.3454  140.0704  156.5480 O.2     1  UNL1       -0.2681
     22 C         137.5433  141.0434  157.6722 C.2     1  UNL1        0.2679
     23 N         137.1663  142.4842  157.4924 N.am    1  UNL1       -0.1934
     24 O         136.5913  142.9517  156.1882 O.3     1  UNL1       -0.2949
     25 H         137.2961  143.1228  158.2303 H       1  UNL1        0.1825
     26 H         136.5305  142.2029  155.5747 H       1  UNL1        0.2414
@<TRIPOS>BOND
     1    21    22    2
     2    22    19    1
     3    19    20    2
     4    20     1    1
     5     1     2   ar
     6     2     3   ar
     7     3     4   ar
     8     4     5   ar
     9     5     6   ar
    10     5     7    1
    11     7     8    1
    12     8    10    1
    13    10    11    2
    14    10    12    2
    15    10    13    1
    16    13    14   ar
    17    14    15   ar
    18    15    16   ar
    19    16    17   ar
    20    17    18   ar
    21     8     9    1
    22    22    23   am
    23    23    24    1
    24     6     1   ar
    25    18    13   ar
    26     9     4    1
    27    23    25    1
    28    24    26    1
