@<TRIPOS>MOLECULE
*****
 38 42 0 0 0
SMALL
GASTEIGER

@<TRIPOS>ATOM
      1 C         142.8609  139.0462  159.2686 C.ar    1  UNL1        0.0503
      2 C         143.7176  138.9668  160.4973 C.ar    1  UNL1        0.0143
      3 C         144.1811  140.2244  161.1709 C.ar    1  UNL1       -0.0029
      4 C         143.7879  141.5613  160.6158 C.ar    1  UNL1       -0.0208
      5 C         142.9311  141.6407  159.3871 C.ar    1  UNL1       -0.0029
      6 C         142.4677  140.3830  158.7135 C.ar    1  UNL1        0.0143
      7 C         142.9242  137.4267  157.2380 C.2     1  UNL1        0.2313
      8 O         143.9147  138.3223  156.5546 O.2     1  UNL1       -0.2744
      9 N         142.3973  137.7886  158.5949 N.am    1  UNL1       -0.2836
     10 H         141.7473  137.2008  159.0434 H       1  UNL1        0.1549
     11 N         144.4358  131.3764  157.9805 N.pl3   1  UNL1       -0.3375
     12 C         143.7016  132.5301  157.3641 C.ar    1  UNL1        0.1560
     13 N         143.8573  133.9747  157.7368 N.ar    1  UNL1       -0.2287
     14 C         142.9347  134.7792  156.8698 C.ar    1  UNL1        0.0712
     15 C         142.2088  133.8318  155.9613 C.ar    1  UNL1        0.0239
     16 S         142.6828  132.4418  156.2667 S.2     1  UNL1       -0.0567
     17 C         141.2862  134.6363  155.0943 C.3     1  UNL1        0.0351
     18 C         141.4419  136.0808  155.4670 C.3     1  UNL1        0.0204
     19 C         142.4607  136.1692  156.5643 C.3     1  UNL1        0.1174
     20 H         145.0894  131.5363  158.6992 H       1  UNL1        0.1442
     21 H         144.2641  130.4593  157.6663 H       1  UNL1        0.1442
     22 C         144.2514  142.8188  161.2894 C.3     1  UNL1        0.0420
     23 C         143.3634  143.5091  162.2818 C.3     1  UNL1        0.0585
     24 C         143.6721  144.7892  163.0002 C.3     1  UNL1        0.0175
     25 C         142.5102  145.1118  163.8925 C.3     1  UNL1        0.0199
     26 C         141.4835  144.0311  163.7256 C.3     1  UNL1        0.0855
     27 N         142.0108  143.0406  162.7301 N.3     1  UNL1       -0.2971
     28 H         141.3808  142.9853  161.9298 H       1  UNL1        0.1233
     29 C         140.1617  143.9543  164.4304 C.3     1  UNL1        0.1470
     30 O         139.3785  145.2062  164.6939 O.3     1  UNL1       -0.3787
     31 H         139.8646  145.9707  164.3473 H       1  UNL1        0.2108
     32 C         139.6230  142.6258  164.8716 C.ar    1  UNL1        0.0064
     33 C         138.6004  141.9157  164.0349 C.ar    1  UNL1       -0.0019
     34 C         138.0617  140.5871  164.4761 C.ar    1  UNL1        0.0006
     35 C         138.5456  139.9685  165.7540 C.ar    1  UNL1        0.0114
     36 C         139.5682  140.6786  166.5907 C.ar    1  UNL1        0.0574
     37 CL        140.0522  140.0600  167.8687 Cl      1  UNL1       -0.0823
     38 C         140.1069  142.0072  166.1495 C.ar    1  UNL1        0.0095
@<TRIPOS>BOND
     1    11    12    1
     2    12    13   ar
     3    13    14   ar
     4    14    15   ar
     5    15    16   ar
     6    15    17    1
     7    17    18    1
     8    18    19    1
     9    19     7    1
    10     7     8    2
    11     7     9   am
    12     9     1    1
    13     1     2   ar
    14     2     3   ar
    15     3     4   ar
    16     4    22    1
    17    23    22    1
    18    23    24    1
    19    24    25    1
    20    26    25    1
    21    26    29    1
    22    29    30    1
    23    29    32    1
    24    32    33   ar
    25    33    34   ar
    26    34    35   ar
    27    35    36   ar
    28    36    37    1
    29    36    38   ar
    30    26    27    1
    31     4     5   ar
    32     5     6   ar
    33    16    12   ar
    34     6     1   ar
    35    19    14    1
    36    27    23    1
    37    38    32   ar
    38    11    20    1
    39    11    21    1
    40     9    10    1
    41    30    31    1
    42    27    28    1
@<TRIPOS>MOLECULE
*****
 38 42 0 0 0
SMALL
GASTEIGER

@<TRIPOS>ATOM
      1 C         139.2430  138.9982  159.7340 C.ar    1  UNL1        0.0503
      2 C         138.4625  138.6222  160.9586 C.ar    1  UNL1        0.0143
      3 C         139.1774  138.1276  162.1810 C.ar    1  UNL1       -0.0029
      4 C         140.6727  138.0089  162.1789 C.ar    1  UNL1       -0.0208
      5 C         141.4532  138.3850  160.9544 C.ar    1  UNL1       -0.0029
      6 C         140.7383  138.8796  159.7320 C.ar    1  UNL1        0.0143
      7 C         138.1892  140.9479  158.3783 C.2     1  UNL1        0.2313
      8 O         138.5649  141.9084  159.4675 O.2     1  UNL1       -0.2744
      9 N         138.5282  139.4929  158.5116 N.am    1  UNL1       -0.2836
     10 H         138.2816  138.8625  157.7967 H       1  UNL1        0.1549
     11 N         132.6566  139.4968  155.7846 N.pl3   1  UNL1       -0.3375
     12 C         133.9611  140.2302  155.8873 C.ar    1  UNL1        0.1560
     13 N         134.9931  140.0477  156.9605 N.ar    1  UNL1       -0.2287
     14 C         136.1324  140.9795  156.6713 C.ar    1  UNL1        0.0712
     15 C         135.8047  141.7378  155.4193 C.ar    1  UNL1        0.0239
     16 S         134.4627  141.2747  154.9348 S.2     1  UNL1       -0.0567
     17 C         136.9441  142.6696  155.1301 C.3     1  UNL1        0.0351
     18 C         137.9759  142.4871  156.2033 C.3     1  UNL1        0.0204
     19 C         137.4744  141.4426  157.1558 C.3     1  UNL1        0.1174
     20 H         132.4148  138.8251  156.4626 H       1  UNL1        0.1442
     21 H         132.0422  139.6872  155.0393 H       1  UNL1        0.1442
     22 C         141.3875  137.5143  163.4014 C.3     1  UNL1        0.0420
     23 C         141.9297  138.4929  164.4006 C.3     1  UNL1        0.0585
     24 C         142.8084  138.1627  165.5706 C.3     1  UNL1        0.0175
     25 C         143.1101  139.4392  166.2984 C.3     1  UNL1        0.0199
     26 C         142.4179  140.5582  165.5781 C.3     1  UNL1        0.0855
     27 N         141.6884  139.9733  164.4053 N.3     1  UNL1       -0.2971
     28 H         142.0389  140.3839  163.5398 H       1  UNL1        0.1233
     29 C         142.4497  142.0076  165.9632 C.3     1  UNL1        0.1470
     30 O         143.5088  142.5122  166.8979 O.3     1  UNL1       -0.3787
     31 H         144.0875  141.7782  167.1573 H       1  UNL1        0.2108
     32 C         141.4224  142.9523  165.4136 C.ar    1  UNL1        0.0064
     33 C         140.1066  143.1199  166.1140 C.ar    1  UNL1       -0.0019
     34 C         139.0793  144.0646  165.5644 C.ar    1  UNL1        0.0006
     35 C         139.3677  144.8418  164.3143 C.ar    1  UNL1        0.0114
     36 C         140.6835  144.6743  163.6139 C.ar    1  UNL1        0.0574
     37 CL        140.9720  145.4514  162.3638 Cl      1  UNL1       -0.0823
     38 C         141.7108  143.7295  164.1635 C.ar    1  UNL1        0.0095
@<TRIPOS>BOND
     1    11    12    1
     2    12    13   ar
     3    13    14   ar
     4    14    15   ar
     5    15    16   ar
     6    15    17    1
     7    17    18    1
     8    18    19    1
     9    19     7    1
    10     7     8    2
    11     7     9   am
    12     9     1    1
    13     1     2   ar
    14     2     3   ar
    15     3     4   ar
    16     4    22    1
    17    23    22    1
    18    23    24    1
    19    24    25    1
    20    26    25    1
    21    26    29    1
    22    29    30    1
    23    29    32    1
    24    32    33   ar
    25    33    34   ar
    26    34    35   ar
    27    35    36   ar
    28    36    37    1
    29    36    38   ar
    30    26    27    1
    31     4     5   ar
    32     5     6   ar
    33    16    12   ar
    34     6     1   ar
    35    19    14    1
    36    27    23    1
    37    38    32   ar
    38    11    20    1
    39    11    21    1
    40     9    10    1
    41    30    31    1
    42    27    28    1
@<TRIPOS>MOLECULE
*****
 38 42 0 0 0
SMALL
GASTEIGER

@<TRIPOS>ATOM
      1 C         144.4348  142.7931  161.8624 C.ar    1  UNL1        0.0503
      2 C         143.9626  144.0564  162.5190 C.ar    1  UNL1        0.0143
      3 C         143.8054  144.1134  164.0097 C.ar    1  UNL1       -0.0029
      4 C         144.1205  142.9072  164.8438 C.ar    1  UNL1       -0.0208
      5 C         144.5927  141.6439  164.1873 C.ar    1  UNL1       -0.0029
      6 C         144.7498  141.5869  162.6966 C.ar    1  UNL1        0.0143
      7 C         143.3890  142.8659  159.4853 C.2     1  UNL1        0.2313
      8 O         142.0288  143.0530  160.0894 O.2     1  UNL1       -0.2744
      9 N         144.5919  142.7360  160.3718 N.am    1  UNL1       -0.2836
     10 H         145.4847  142.6132  159.9753 H       1  UNL1        0.1549
     11 N         148.2996  141.6951  155.7494 N.pl3   1  UNL1       -0.3375
     12 C         146.8680  142.0252  156.0522 C.ar    1  UNL1        0.1560
     13 N         146.2691  142.1810  157.4186 N.ar    1  UNL1       -0.2287
     14 C         144.8150  142.5095  157.2527 C.ar    1  UNL1        0.0712
     15 C         144.5151  142.5567  155.7837 C.ar    1  UNL1        0.0239
     16 S         145.7840  142.2574  155.0418 S.2     1  UNL1       -0.0567
     17 C         143.0609  142.8852  155.6178 C.3     1  UNL1        0.0351
     18 C         142.4622  143.0410  156.9842 C.3     1  UNL1        0.0204
     19 C         143.5461  142.8088  157.9946 C.3     1  UNL1        0.1174
     20 H         148.9398  141.5599  156.4849 H       1  UNL1        0.1442
     21 H         148.5989  141.6136  154.8150 H       1  UNL1        0.1442
     22 C         143.9633  142.9643  166.3344 C.3     1  UNL1        0.0420
     23 C         142.9401  142.1035  167.0143 C.3     1  UNL1        0.0585
     24 C         142.9502  141.6950  168.4575 C.3     1  UNL1        0.0175
     25 C         141.7435  140.8391  168.7054 C.3     1  UNL1        0.0199
     26 C         140.9878  140.7186  167.4153 C.3     1  UNL1        0.0855
     27 N         141.7273  141.5000  166.3701 N.3     1  UNL1       -0.2971
     28 H         141.1279  142.2382  166.0011 H       1  UNL1        0.1233
     29 C         139.7158  139.9514  167.2071 C.3     1  UNL1        0.1470
     30 O         138.8933  139.5282  168.3879 O.3     1  UNL1       -0.3787
     31 H         139.3219  139.8281  169.2047 H       1  UNL1        0.2108
     32 C         139.2663  139.6073  165.8180 C.ar    1  UNL1        0.0064
     33 C         139.5905  138.2634  165.2360 C.ar    1  UNL1       -0.0019
     34 C         139.1410  137.9193  163.8469 C.ar    1  UNL1        0.0006
     35 C         138.3674  138.9192  163.0397 C.ar    1  UNL1        0.0114
     36 C         138.0432  140.2632  163.6217 C.ar    1  UNL1        0.0574
     37 CL        137.2695  141.2631  162.8145 Cl      1  UNL1       -0.0823
     38 C         138.4926  140.6072  165.0108 C.ar    1  UNL1        0.0095
@<TRIPOS>BOND
     1    11    12    1
     2    12    13   ar
     3    13    14   ar
     4    14    15   ar
     5    15    16   ar
     6    15    17    1
     7    17    18    1
     8    18    19    1
     9    19     7    1
    10     7     8    2
    11     7     9   am
    12     9     1    1
    13     1     2   ar
    14     2     3   ar
    15     3     4   ar
    16     4    22    1
    17    23    22    1
    18    23    24    1
    19    24    25    1
    20    26    25    1
    21    26    29    1
    22    29    30    1
    23    29    32    1
    24    32    33   ar
    25    33    34   ar
    26    34    35   ar
    27    35    36   ar
    28    36    37    1
    29    36    38   ar
    30    26    27    1
    31     4     5   ar
    32     5     6   ar
    33    16    12   ar
    34     6     1   ar
    35    19    14    1
    36    27    23    1
    37    38    32   ar
    38    11    20    1
    39    11    21    1
    40     9    10    1
    41    30    31    1
    42    27    28    1
@<TRIPOS>MOLECULE
*****
 38 42 0 0 0
SMALL
GASTEIGER

@<TRIPOS>ATOM
      1 C         143.7207  139.5822  159.6387 C.ar    1  UNL1        0.0503
      2 C         143.6996  141.0746  159.4892 C.ar    1  UNL1        0.0143
      3 C         144.0684  141.9499  160.6502 C.ar    1  UNL1       -0.0029
      4 C         144.4584  141.3329  161.9606 C.ar    1  UNL1       -0.0208
      5 C         144.4796  139.8405  162.1100 C.ar    1  UNL1       -0.0029
      6 C         144.1107  138.9652  160.9491 C.ar    1  UNL1        0.0143
      7 C         141.9603  138.1587  158.3641 C.2     1  UNL1        0.2313
      8 O         140.9375  138.4860  159.4114 O.2     1  UNL1       -0.2744
      9 N         143.3519  138.7069  158.4777 N.am    1  UNL1       -0.2836
     10 H         144.0232  138.4921  157.7904 H       1  UNL1        0.1549
     11 N         144.4773  132.9128  156.0006 N.pl3   1  UNL1       -0.3375
     12 C         143.4858  134.0364  156.0672 C.ar    1  UNL1        0.1560
     13 N         143.4774  135.1461  157.0764 N.ar    1  UNL1       -0.2287
     14 C         142.3150  136.0432  156.7693 C.ar    1  UNL1        0.0712
     15 C         141.6051  135.4878  155.5703 C.ar    1  UNL1        0.0239
     16 S         142.3287  134.2476  155.1364 S.2     1  UNL1       -0.0567
     17 C         140.4427  136.3849  155.2632 C.3     1  UNL1        0.0351
     18 C         140.4343  137.4945  156.2724 C.3     1  UNL1        0.0204
     19 C         141.5914  137.2834  157.2032 C.3     1  UNL1        0.1174
     20 H         145.2062  132.8597  156.6602 H       1  UNL1        0.1442
     21 H         144.3991  132.2284  155.2972 H       1  UNL1        0.1442
     22 C         144.8273  142.2082  163.1215 C.3     1  UNL1        0.0420
     23 C         144.1525  142.0189  164.4477 C.3     1  UNL1        0.0585
     24 C         143.9600  143.0730  165.4973 C.3     1  UNL1        0.0175
     25 C         143.2402  142.4479  166.6555 C.3     1  UNL1        0.0199
     26 C         142.9879  141.0075  166.3215 C.3     1  UNL1        0.0855
     27 N         143.5517  140.7424  164.9570 N.3     1  UNL1       -0.2971
     28 H         142.8088  140.4348  164.3293 H       1  UNL1        0.1233
     29 C         142.2936  140.0077  167.1981 C.3     1  UNL1        0.1470
     30 O         142.9956  139.4489  168.4002 O.3     1  UNL1       -0.3787
     31 H         143.8829  139.8356  168.4652 H       1  UNL1        0.2108
     32 C         140.8973  139.5668  166.8727 C.ar    1  UNL1        0.0064
     33 C         139.7787  139.8506  167.8309 C.ar    1  UNL1       -0.0019
     34 C         138.3824  139.4097  167.5056 C.ar    1  UNL1        0.0006
     35 C         138.1046  138.6850  166.2220 C.ar    1  UNL1        0.0114
     36 C         139.2232  138.4012  165.2638 C.ar    1  UNL1        0.0574
     37 CL        138.9455  137.6765  163.9802 Cl      1  UNL1       -0.0823
     38 C         140.6195  138.8421  165.5892 C.ar    1  UNL1        0.0095
@<TRIPOS>BOND
     1    11    12    1
     2    12    13   ar
     3    13    14   ar
     4    14    15   ar
     5    15    16   ar
     6    15    17    1
     7    17    18    1
     8    18    19    1
     9    19     7    1
    10     7     8    2
    11     7     9   am
    12     9     1    1
    13     1     2   ar
    14     2     3   ar
    15     3     4   ar
    16     4    22    1
    17    23    22    1
    18    23    24    1
    19    24    25    1
    20    26    25    1
    21    26    29    1
    22    29    30    1
    23    29    32    1
    24    32    33   ar
    25    33    34   ar
    26    34    35   ar
    27    35    36   ar
    28    36    37    1
    29    36    38   ar
    30    26    27    1
    31     4     5   ar
    32     5     6   ar
    33    16    12   ar
    34     6     1   ar
    35    19    14    1
    36    27    23    1
    37    38    32   ar
    38    11    20    1
    39    11    21    1
    40     9    10    1
    41    30    31    1
    42    27    28    1
@<TRIPOS>MOLECULE
*****
 38 42 0 0 0
SMALL
GASTEIGER

@<TRIPOS>ATOM
      1 C         144.1053  141.9442  159.9349 C.ar    1  UNL1        0.0503
      2 C         144.8299  142.7425  160.9778 C.ar    1  UNL1        0.0143
      3 C         145.1560  142.1227  162.3043 C.ar    1  UNL1       -0.0029
      4 C         144.7574  140.7047  162.5879 C.ar    1  UNL1       -0.0208
      5 C         144.0328  139.9064  161.5451 C.ar    1  UNL1       -0.0029
      6 C         143.7068  140.5262  160.2185 C.ar    1  UNL1        0.0143
      7 C         142.6239  143.5128  158.4875 C.2     1  UNL1        0.2313
      8 O         141.7946  143.8421  159.6933 O.2     1  UNL1       -0.2744
      9 N         143.7792  142.5639  158.6083 N.am    1  UNL1       -0.2836
     10 H         144.3235  142.3477  157.8170 H       1  UNL1        0.1549
     11 N         138.7106  148.1143  156.7687 N.pl3   1  UNL1       -0.3375
     12 C         139.7362  147.0438  156.5406 C.ar    1  UNL1        0.1560
     13 N         140.3469  146.1688  157.5949 N.ar    1  UNL1       -0.2287
     14 C         141.3194  145.2445  156.9240 C.ar    1  UNL1        0.0712
     15 C         141.3097  145.5482  155.4551 C.ar    1  UNL1        0.0239
     16 S         140.3313  146.6602  155.2182 S.2     1  UNL1       -0.0567
     17 C         142.2822  144.6239  154.7843 C.3     1  UNL1        0.0351
     18 C         142.8928  143.7490  155.8386 C.3     1  UNL1        0.0204
     19 C         142.2978  144.1325  157.1610 C.3     1  UNL1        0.1174
     20 H         138.3795  148.2930  157.6784 H       1  UNL1        0.1442
     21 H         138.3685  148.6382  156.0086 H       1  UNL1        0.1442
     22 C         145.0835  140.0851  163.9145 C.3     1  UNL1        0.0420
     23 C         143.9857  139.7811  164.8904 C.3     1  UNL1        0.0585
     24 C         143.9387  138.6114  165.8283 C.3     1  UNL1        0.0175
     25 C         142.6661  138.7009  166.6174 C.3     1  UNL1        0.0199
     26 C         141.9267  139.9259  166.1672 C.3     1  UNL1        0.0855
     27 N         142.7423  140.5935  165.0999 N.3     1  UNL1       -0.2971
     28 H         142.9912  141.5378  165.3943 H       1  UNL1        0.1233
     29 C         140.6040  140.4000  166.6921 C.3     1  UNL1        0.1470
     30 O         140.1914  140.0679  168.0955 O.3     1  UNL1       -0.3787
     31 H         140.8885  139.5456  168.5224 H       1  UNL1        0.2108
     32 C         139.6939  141.2063  165.8137 C.ar    1  UNL1        0.0064
     33 C         138.7134  140.5143  164.9138 C.ar    1  UNL1       -0.0019
     34 C         137.8033  141.3206  164.0354 C.ar    1  UNL1        0.0006
     35 C         137.8735  142.8187  164.0569 C.ar    1  UNL1        0.0114
     36 C         138.8540  143.5107  164.9568 C.ar    1  UNL1        0.0574
     37 CL        138.9243  145.0088  164.9784 Cl      1  UNL1       -0.0823
     38 C         139.7641  142.7044  165.8352 C.ar    1  UNL1        0.0095
@<TRIPOS>BOND
     1    11    12    1
     2    12    13   ar
     3    13    14   ar
     4    14    15   ar
     5    15    16   ar
     6    15    17    1
     7    17    18    1
     8    18    19    1
     9    19     7    1
    10     7     8    2
    11     7     9   am
    12     9     1    1
    13     1     2   ar
    14     2     3   ar
    15     3     4   ar
    16     4    22    1
    17    23    22    1
    18    23    24    1
    19    24    25    1
    20    26    25    1
    21    26    29    1
    22    29    30    1
    23    29    32    1
    24    32    33   ar
    25    33    34   ar
    26    34    35   ar
    27    35    36   ar
    28    36    37    1
    29    36    38   ar
    30    26    27    1
    31     4     5   ar
    32     5     6   ar
    33    16    12   ar
    34     6     1   ar
    35    19    14    1
    36    27    23    1
    37    38    32   ar
    38    11    20    1
    39    11    21    1
    40     9    10    1
    41    30    31    1
    42    27    28    1
@<TRIPOS>MOLECULE
*****
 38 42 0 0 0
SMALL
GASTEIGER

@<TRIPOS>ATOM
      1 C         144.4845  142.4788  162.0522 C.ar    1  UNL1        0.0503
      2 C         143.6749  143.6128  162.6076 C.ar    1  UNL1        0.0143
      3 C         143.3704  143.6685  164.0754 C.ar    1  UNL1       -0.0029
      4 C         143.8755  142.5902  164.9877 C.ar    1  UNL1       -0.0208
      5 C         144.6851  141.4562  164.4322 C.ar    1  UNL1       -0.0029
      6 C         144.9896  141.4006  162.9645 C.ar    1  UNL1        0.0143
      7 C         144.0253  141.4873  159.6951 C.2     1  UNL1        0.2313
      8 O         142.9570  140.6074  160.2733 O.2     1  UNL1       -0.2744
      9 N         144.7890  142.4230  160.5845 N.am    1  UNL1       -0.2836
     10 H         145.4902  143.0006  160.2049 H       1  UNL1        0.1549
     11 N         143.2772  137.0208  155.3439 N.pl3   1  UNL1       -0.3375
     12 C         143.6837  138.3729  155.8505 C.ar    1  UNL1        0.1560
     13 N         143.5567  138.8597  157.2636 N.ar    1  UNL1       -0.2287
     14 C         144.0830  140.2633  157.3195 C.ar    1  UNL1        0.0712
     15 C         144.5352  140.6439  155.9409 C.ar    1  UNL1        0.0239
     16 S         144.2884  139.4756  155.0330 S.2     1  UNL1       -0.0567
     17 C         145.0615  142.0475  155.9968 C.3     1  UNL1        0.0351
     18 C         144.9345  142.5342  157.4098 C.3     1  UNL1        0.0204
     19 C         144.3298  141.4315  158.2273 C.3     1  UNL1        0.1174
     20 H         142.8868  136.3608  155.9612 H       1  UNL1        0.1442
     21 H         143.4009  136.7935  154.3940 H       1  UNL1        0.1442
     22 C         143.5710  142.6460  166.4554 C.3     1  UNL1        0.0420
     23 C         142.3061  142.0359  166.9826 C.3     1  UNL1        0.0585
     24 C         141.6734  142.3281  168.3109 C.3     1  UNL1        0.0175
     25 C         140.4281  141.4993  168.4233 C.3     1  UNL1        0.0199
     26 C         140.2913  140.6950  167.1646 C.3     1  UNL1        0.0855
     27 N         141.4520  141.0266  166.2742 N.3     1  UNL1       -0.2971
     28 H         141.1132  141.4163  165.3946 H       1  UNL1        0.1233
     29 C         139.1877  139.7287  166.8514 C.3     1  UNL1        0.1470
     30 O         138.3719  139.1361  167.9620 O.3     1  UNL1       -0.3787
     31 H         138.6860  139.4801  168.8129 H       1  UNL1        0.2108
     32 C         138.8997  139.3550  165.4275 C.ar    1  UNL1        0.0064
     33 C         139.1829  137.9632  164.9454 C.ar    1  UNL1       -0.0019
     34 C         138.8949  137.5895  163.5215 C.ar    1  UNL1        0.0006
     35 C         138.3237  138.6076  162.5797 C.ar    1  UNL1        0.0114
     36 C         138.0405  139.9995  163.0618 C.ar    1  UNL1        0.0574
     37 CL        137.4692  141.0177  162.1201 Cl      1  UNL1       -0.0823
     38 C         138.3284  140.3732  164.4857 C.ar    1  UNL1        0.0095
@<TRIPOS>BOND
     1    11    12    1
     2    12    13   ar
     3    13    14   ar
     4    14    15   ar
     5    15    16   ar
     6    15    17    1
     7    17    18    1
     8    18    19    1
     9    19     7    1
    10     7     8    2
    11     7     9   am
    12     9     1    1
    13     1     2   ar
    14     2     3   ar
    15     3     4   ar
    16     4    22    1
    17    23    22    1
    18    23    24    1
    19    24    25    1
    20    26    25    1
    21    26    29    1
    22    29    30    1
    23    29    32    1
    24    32    33   ar
    25    33    34   ar
    26    34    35   ar
    27    35    36   ar
    28    36    37    1
    29    36    38   ar
    30    26    27    1
    31     4     5   ar
    32     5     6   ar
    33    16    12   ar
    34     6     1   ar
    35    19    14    1
    36    27    23    1
    37    38    32   ar
    38    11    20    1
    39    11    21    1
    40     9    10    1
    41    30    31    1
    42    27    28    1
@<TRIPOS>MOLECULE
*****
 38 42 0 0 0
SMALL
GASTEIGER

@<TRIPOS>ATOM
      1 C         140.8315  143.7506  159.0838 C.ar    1  UNL1        0.0503
      2 C         142.0530  142.8827  159.0165 C.ar    1  UNL1        0.0143
      3 C         143.0207  142.8598  160.1624 C.ar    1  UNL1       -0.0029
      4 C         142.7670  143.7047  161.3755 C.ar    1  UNL1       -0.0208
      5 C         141.5455  144.5727  161.4428 C.ar    1  UNL1       -0.0029
      6 C         140.5778  144.5956  160.2969 C.ar    1  UNL1        0.0143
      7 C         138.7430  142.7782  157.8828 C.2     1  UNL1        0.2313
      8 O         138.5900  141.7597  158.9734 O.2     1  UNL1       -0.2744
      9 N         139.8637  143.7736  157.9380 N.am    1  UNL1       -0.2836
     10 H         139.9640  144.4421  157.2223 H       1  UNL1        0.1549
     11 N         134.1215  138.9098  156.1165 N.pl3   1  UNL1       -0.3375
     12 C         134.9986  140.1217  156.0068 C.ar    1  UNL1        0.1560
     13 N         136.1068  140.4960  156.9458 N.ar    1  UNL1       -0.2287
     14 C         136.7146  141.7777  156.4581 C.ar    1  UNL1        0.0712
     15 C         135.9820  142.1956  155.2177 C.ar    1  UNL1        0.0239
     16 S         134.9214  141.1722  154.9388 S.2     1  UNL1       -0.0567
     17 C         136.5897  143.4773  154.7301 C.3     1  UNL1        0.0351
     18 C         137.6979  143.8515  155.6690 C.3     1  UNL1        0.0204
     19 C         137.7751  142.8012  156.7370 C.3     1  UNL1        0.1174
     20 H         134.2501  138.2746  156.8576 H       1  UNL1        0.1442
     21 H         133.4172  138.7497  155.4475 H       1  UNL1        0.1442
     22 C         143.7348  143.6818  162.5213 C.3     1  UNL1        0.0420
     23 C         144.0672  142.3842  163.1964 C.3     1  UNL1        0.0585
     24 C         145.4410  141.8077  163.3710 C.3     1  UNL1        0.0175
     25 C         145.3069  140.5025  164.0979 C.3     1  UNL1        0.0199
     26 C         143.8504  140.2723  164.3726 C.3     1  UNL1        0.0855
     27 N         143.0842  141.4352  163.8154 N.3     1  UNL1       -0.2971
     28 H         142.5744  141.9045  164.5640 H       1  UNL1        0.1233
     29 C         143.2632  139.0872  165.0803 C.3     1  UNL1        0.1470
     30 O         144.0869  138.3232  166.0742 O.3     1  UNL1       -0.3787
     31 H         144.9678  138.7240  166.1401 H       1  UNL1        0.2108
     32 C         141.8523  138.6661  164.7940 C.ar    1  UNL1        0.0064
     33 C         141.5486  137.8356  163.5823 C.ar    1  UNL1       -0.0019
     34 C         140.1377  137.4145  163.2960 C.ar    1  UNL1        0.0006
     35 C         139.0304  137.8239  164.2213 C.ar    1  UNL1        0.0114
     36 C         139.3340  138.6543  165.4330 C.ar    1  UNL1        0.0574
     37 CL        138.2267  139.0637  166.3584 Cl      1  UNL1       -0.0823
     38 C         140.7449  139.0754  165.7193 C.ar    1  UNL1        0.0095
@<TRIPOS>BOND
     1    11    12    1
     2    12    13   ar
     3    13    14   ar
     4    14    15   ar
     5    15    16   ar
     6    15    17    1
     7    17    18    1
     8    18    19    1
     9    19     7    1
    10     7     8    2
    11     7     9   am
    12     9     1    1
    13     1     2   ar
    14     2     3   ar
    15     3     4   ar
    16     4    22    1
    17    23    22    1
    18    23    24    1
    19    24    25    1
    20    26    25    1
    21    26    29    1
    22    29    30    1
    23    29    32    1
    24    32    33   ar
    25    33    34   ar
    26    34    35   ar
    27    35    36   ar
    28    36    37    1
    29    36    38   ar
    30    26    27    1
    31     4     5   ar
    32     5     6   ar
    33    16    12   ar
    34     6     1   ar
    35    19    14    1
    36    27    23    1
    37    38    32   ar
    38    11    20    1
    39    11    21    1
    40     9    10    1
    41    30    31    1
    42    27    28    1
@<TRIPOS>MOLECULE
*****
 38 42 0 0 0
SMALL
GASTEIGER

@<TRIPOS>ATOM
      1 C         138.8579  138.5638  161.8303 C.ar    1  UNL1        0.0503
      2 C         139.3612  137.5427  162.8071 C.ar    1  UNL1        0.0143
      3 C         139.2496  137.7963  164.2813 C.ar    1  UNL1       -0.0029
      4 C         138.6347  139.0709  164.7787 C.ar    1  UNL1       -0.0208
      5 C         138.1314  140.0919  163.8019 C.ar    1  UNL1       -0.0029
      6 C         138.2430  139.8383  162.3277 C.ar    1  UNL1        0.0143
      7 C         140.0610  138.9654  159.5629 C.2     1  UNL1        0.2313
      8 O         141.0411  139.8740  160.2439 O.2     1  UNL1       -0.2744
      9 N         138.9694  138.3102  160.3561 N.am    1  UNL1       -0.2836
     10 H         138.3262  137.7138  159.9091 H       1  UNL1        0.1549
     11 N         144.0917  135.6217  156.0965 N.pl3   1  UNL1       -0.3375
     12 C         142.9066  136.5125  156.3252 C.ar    1  UNL1        0.1560
     13 N         142.4267  137.0176  157.6535 N.ar    1  UNL1       -0.2287
     14 C         141.2169  137.8718  157.4151 C.ar    1  UNL1        0.0712
     15 C         140.9492  137.8946  155.9394 C.ar    1  UNL1        0.0239
     16 S         141.9935  137.0545  155.2658 S.2     1  UNL1       -0.0567
     17 C         139.7394  138.7488  155.7009 C.3     1  UNL1        0.0351
     18 C         139.2595  139.2538  157.0292 C.3     1  UNL1        0.0204
     19 C         140.1726  138.7119  158.0887 C.3     1  UNL1        0.1174
     20 H         144.6327  135.3165  156.8602 H       1  UNL1        0.1442
     21 H         144.3284  135.3424  155.1826 H       1  UNL1        0.1442
     22 C         138.5231  139.3244  166.2529 C.3     1  UNL1        0.0420
     23 C         139.5962  140.0935  166.9650 C.3     1  UNL1        0.0585
     24 C         139.6319  140.4051  168.4318 C.3     1  UNL1        0.0175
     25 C         140.8798  141.1902  168.7087 C.3     1  UNL1        0.0199
     26 C         141.6152  141.3637  167.4129 C.3     1  UNL1        0.0855
     27 N         140.8219  140.6859  166.3353 N.3     1  UNL1       -0.2971
     28 H         141.3810  139.9489  165.9055 H       1  UNL1        0.1233
     29 C         142.9156  142.0879  167.2274 C.3     1  UNL1        0.1470
     30 O         143.6319  142.6593  168.4151 O.3     1  UNL1       -0.3787
     31 H         143.1230  142.4737  169.2197 H       1  UNL1        0.2108
     32 C         143.4997  142.2408  165.8543 C.ar    1  UNL1        0.0064
     33 C         144.1341  141.0642  165.1738 C.ar    1  UNL1       -0.0019
     34 C         144.7182  141.2170  163.8007 C.ar    1  UNL1        0.0006
     35 C         144.6679  142.5465  163.1080 C.ar    1  UNL1        0.0114
     36 C         144.0335  143.7232  163.7885 C.ar    1  UNL1        0.0574
     37 CL        143.9832  145.0527  163.0958 Cl      1  UNL1       -0.0823
     38 C         143.4494  143.5703  165.1616 C.ar    1  UNL1        0.0095
@<TRIPOS>BOND
     1    11    12    1
     2    12    13   ar
     3    13    14   ar
     4    14    15   ar
     5    15    16   ar
     6    15    17    1
     7    17    18    1
     8    18    19    1
     9    19     7    1
    10     7     8    2
    11     7     9   am
    12     9     1    1
    13     1     2   ar
    14     2     3   ar
    15     3     4   ar
    16     4    22    1
    17    23    22    1
    18    23    24    1
    19    24    25    1
    20    26    25    1
    21    26    29    1
    22    29    30    1
    23    29    32    1
    24    32    33   ar
    25    33    34   ar
    26    34    35   ar
    27    35    36   ar
    28    36    37    1
    29    36    38   ar
    30    26    27    1
    31     4     5   ar
    32     5     6   ar
    33    16    12   ar
    34     6     1   ar
    35    19    14    1
    36    27    23    1
    37    38    32   ar
    38    11    20    1
    39    11    21    1
    40     9    10    1
    41    30    31    1
    42    27    28    1
@<TRIPOS>MOLECULE
*****
 38 42 0 0 0
SMALL
GASTEIGER

@<TRIPOS>ATOM
      1 C         138.2420  139.6210  160.2922 C.ar    1  UNL1        0.0503
      2 C         139.3212  138.5915  160.1327 C.ar    1  UNL1        0.0143
      3 C         140.1365  138.1696  161.3191 C.ar    1  UNL1       -0.0029
      4 C         139.8726  138.7772  162.6649 C.ar    1  UNL1       -0.0208
      5 C         138.7934  139.8067  162.8244 C.ar    1  UNL1       -0.0029
      6 C         137.9781  140.2286  161.6380 C.ar    1  UNL1        0.0143
      7 C         137.9814  141.0379  158.1302 C.2     1  UNL1        0.2313
      8 O         139.3515  141.6110  158.3406 O.2     1  UNL1       -0.2744
      9 N         137.4266  140.0429  159.1060 N.am    1  UNL1       -0.2836
     10 H         136.5274  139.6667  158.9678 H       1  UNL1        0.1549
     11 N         132.3666  139.2549  155.9537 N.pl3   1  UNL1       -0.3375
     12 C         133.6390  140.0493  155.9478 C.ar    1  UNL1        0.1560
     13 N         134.7460  139.9486  156.9550 N.ar    1  UNL1       -0.2287
     14 C         135.8188  140.9210  156.5634 C.ar    1  UNL1        0.0712
     15 C         135.3749  141.6228  155.3142 C.ar    1  UNL1        0.0239
     16 S         134.0277  141.0840  154.9338 S.2     1  UNL1       -0.0567
     17 C         136.4478  142.5952  154.9227 C.3     1  UNL1        0.0351
     18 C         137.5547  142.4944  155.9298 C.3     1  UNL1        0.0204
     19 C         137.1661  141.4598  156.9439 C.3     1  UNL1        0.1174
     20 H         132.2014  138.5953  156.6656 H       1  UNL1        0.1442
     21 H         131.6968  139.3930  155.2455 H       1  UNL1        0.1442
     22 C         140.6879  138.3553  163.8511 C.3     1  UNL1        0.0420
     23 C         141.6931  139.2978  164.4438 C.3     1  UNL1        0.0585
     24 C         143.0575  139.5915  163.8941 C.3     1  UNL1        0.0175
     25 C         143.7180  140.5874  164.8009 C.3     1  UNL1        0.0199
     26 C         142.7618  140.9091  165.9109 C.3     1  UNL1        0.0855
     27 N         141.5104  140.1121  165.6903 N.3     1  UNL1       -0.2971
     28 H         140.7147  140.7407  165.5796 H       1  UNL1        0.1233
     29 C         143.0130  141.8606  167.0429 C.3     1  UNL1        0.1470
     30 O         143.8976  143.0544  166.8369 O.3     1  UNL1       -0.3787
     31 H         144.2228  143.0620  165.9231 H       1  UNL1        0.2108
     32 C         142.3796  141.6185  168.3809 C.ar    1  UNL1        0.0064
     33 C         142.7899  140.4315  169.2011 C.ar    1  UNL1       -0.0019
     34 C         142.1565  140.1893  170.5390 C.ar    1  UNL1        0.0006
     35 C         141.1128  141.1341  171.0568 C.ar    1  UNL1        0.0114
     36 C         140.7026  142.3211  170.2366 C.ar    1  UNL1        0.0574
     37 CL        139.6589  143.2659  170.7544 Cl      1  UNL1       -0.0823
     38 C         141.3360  142.5633  168.8987 C.ar    1  UNL1        0.0095
@<TRIPOS>BOND
     1    11    12    1
     2    12    13   ar
     3    13    14   ar
     4    14    15   ar
     5    15    16   ar
     6    15    17    1
     7    17    18    1
     8    18    19    1
     9    19     7    1
    10     7     8    2
    11     7     9   am
    12     9     1    1
    13     1     2   ar
    14     2     3   ar
    15     3     4   ar
    16     4    22    1
    17    23    22    1
    18    23    24    1
    19    24    25    1
    20    26    25    1
    21    26    29    1
    22    29    30    1
    23    29    32    1
    24    32    33   ar
    25    33    34   ar
    26    34    35   ar
    27    35    36   ar
    28    36    37    1
    29    36    38   ar
    30    26    27    1
    31     4     5   ar
    32     5     6   ar
    33    16    12   ar
    34     6     1   ar
    35    19    14    1
    36    27    23    1
    37    38    32   ar
    38    11    20    1
    39    11    21    1
    40     9    10    1
    41    30    31    1
    42    27    28    1
