@<TRIPOS>MOLECULE
*****
 26 28 0 0 0
SMALL
GASTEIGER

@<TRIPOS>ATOM
      1 C         139.9810  138.0738  163.2722 C.ar    1  UNL1        0.1387
      2 C         138.7542  137.6777  164.0389 C.ar    1  UNL1        0.0371
      3 C         138.5496  138.1789  165.4378 C.ar    1  UNL1        0.0078
      4 C         139.5719  139.0763  166.0700 C.ar    1  UNL1        0.0565
      5 C         139.3673  139.5775  167.4689 C.ar    1  UNL1        0.2614
      6 O         138.1405  139.1814  168.2356 O.2     1  UNL1       -0.2670
      7 N         140.3896  140.4749  168.1010 N.ar    1  UNL1       -0.2847
      8 C         141.6165  140.8711  167.3343 C.ar    1  UNL1        0.1318
      9 C         141.8210  140.3698  165.9354 C.ar    1  UNL1        0.0261
     10 C         140.7987  139.4724  165.3032 C.ar    1  UNL1        0.0097
     11 C         141.0032  138.9712  163.9043 C.ar    1  UNL1        0.0371
     12 C         143.0478  140.7660  165.1687 C.ar    1  UNL1        0.0043
     13 C         144.1593  139.7786  164.9697 C.ar    1  UNL1        0.0002
     14 C         145.3862  140.1748  164.2029 C.ar    1  UNL1        0.0023
     15 C         145.5015  141.5583  163.6351 C.ar    1  UNL1        0.0296
     16 C         144.3900  142.5457  163.8341 C.ar    1  UNL1        0.1401
     17 F         144.5053  143.9293  163.2663 F       1  UNL1       -0.2042
     18 C         143.1632  142.1496  164.6008 C.ar    1  UNL1        0.0297
     19 C         140.1237  138.5272  160.7180 C.3     1  UNL1        0.2525
     20 O         140.1856  137.5726  161.8733 O.3     1  UNL1       -0.4714
     21 C         142.6387  141.7684  167.9665 C.1     1  UNL1        0.1180
     22 N         143.6610  142.6658  168.5987 N.1     1  UNL1       -0.1893
     23 C         140.1850  140.9761  169.4999 C.3     1  UNL1        0.1413
     24 C         140.6079  140.1346  170.6675 C.3     1  UNL1        0.1617
     25 O         139.6033  139.2742  171.3748 O.3     1  UNL1       -0.3799
     26 H         138.9449  139.8375  171.8107 H       1  UNL1        0.2105
@<TRIPOS>BOND
     1    19    20    1
     2    20     1    1
     3     1     2   ar
     4     2     3   ar
     5     3     4   ar
     6     4     5   ar
     7     5     6    2
     8     5     7   ar
     9     7    23    1
    10    23    24    1
    11    24    25    1
    12     7     8   ar
    13     8    21    1
    14    21    22    3
    15     8     9   ar
    16     9    12    1
    17    12    13   ar
    18    13    14   ar
    19    14    15   ar
    20    15    16   ar
    21    16    17    1
    22    16    18   ar
    23     9    10   ar
    24    10    11   ar
    25    11     1   ar
    26    10     4   ar
    27    18    12   ar
    28    25    26    1
@<TRIPOS>MOLECULE
*****
 26 28 0 0 0
SMALL
GASTEIGER

@<TRIPOS>ATOM
      1 C         143.5206  142.1049  164.3937 C.ar    1  UNL1        0.1387
      2 C         144.0128  142.8282  165.6121 C.ar    1  UNL1        0.0371
      3 C         143.2928  142.6724  166.9187 C.ar    1  UNL1        0.0078
      4 C         142.0807  141.7932  167.0070 C.ar    1  UNL1        0.0565
      5 C         141.3607  141.6374  168.3136 C.ar    1  UNL1        0.2614
      6 O         141.8528  142.3607  169.5320 O.2     1  UNL1       -0.2670
      7 N         140.1486  140.7582  168.4018 N.ar    1  UNL1       -0.2847
      8 C         139.6564  140.0348  167.1834 C.ar    1  UNL1        0.1318
      9 C         140.3764  140.1907  165.8767 C.ar    1  UNL1        0.0261
     10 C         141.5886  141.0699  165.7885 C.ar    1  UNL1        0.0097
     11 C         142.3085  141.2258  164.4819 C.ar    1  UNL1        0.0371
     12 C         139.8843  139.4674  164.6583 C.ar    1  UNL1        0.0043
     13 C         140.4356  138.1153  164.3150 C.ar    1  UNL1        0.0002
     14 C         139.9434  137.3919  163.0965 C.ar    1  UNL1        0.0023
     15 C         138.9000  138.0208  162.2214 C.ar    1  UNL1        0.0296
     16 C         138.3487  139.3729  162.5647 C.ar    1  UNL1        0.1401
     17 F         137.3053  140.0017  161.6896 F       1  UNL1       -0.2042
     18 C         138.8408  140.0962  163.7831 C.ar    1  UNL1        0.0297
     19 C         144.3914  143.6202  162.4713 C.3     1  UNL1        0.2525
     20 O         144.2406  142.2608  163.0870 O.3     1  UNL1       -0.4714
     21 C         138.4443  139.1557  167.2716 C.1     1  UNL1        0.1180
     22 N         137.2321  138.2765  167.3598 N.1     1  UNL1       -0.1893
     23 C         139.4286  140.6024  169.7085 C.3     1  UNL1        0.1413
     24 C         140.0917  139.8898  170.8498 C.3     1  UNL1        0.1617
     25 O         140.7576  140.6763  171.9397 O.3     1  UNL1       -0.3799
     26 H         141.5231  141.1484  171.5764 H       1  UNL1        0.2105
@<TRIPOS>BOND
     1    19    20    1
     2    20     1    1
     3     1     2   ar
     4     2     3   ar
     5     3     4   ar
     6     4     5   ar
     7     5     6    2
     8     5     7   ar
     9     7    23    1
    10    23    24    1
    11    24    25    1
    12     7     8   ar
    13     8    21    1
    14    21    22    3
    15     8     9   ar
    16     9    12    1
    17    12    13   ar
    18    13    14   ar
    19    14    15   ar
    20    15    16   ar
    21    16    17    1
    22    16    18   ar
    23     9    10   ar
    24    10    11   ar
    25    11     1   ar
    26    10     4   ar
    27    18    12   ar
    28    25    26    1
@<TRIPOS>MOLECULE
*****
 26 28 0 0 0
SMALL
GASTEIGER

@<TRIPOS>ATOM
      1 C         142.4955  142.5515  169.9699 C.ar    1  UNL1        0.1387
      2 C         141.4628  141.9228  170.8577 C.ar    1  UNL1        0.0371
      3 C         140.3728  141.0821  170.2617 C.ar    1  UNL1        0.0078
      4 C         140.3155  140.8703  168.7778 C.ar    1  UNL1        0.0565
      5 C         139.2255  140.0296  168.1818 C.ar    1  UNL1        0.2614
      6 O         138.1928  139.4009  169.0696 O.2     1  UNL1       -0.2670
      7 N         139.1682  139.8177  166.6980 N.ar    1  UNL1       -0.2847
      8 C         140.2009  140.4465  165.8101 C.ar    1  UNL1        0.1318
      9 C         141.2909  141.2871  166.4061 C.ar    1  UNL1        0.0261
     10 C         141.3481  141.4990  167.8901 C.ar    1  UNL1        0.0097
     11 C         142.4381  142.3396  168.4861 C.ar    1  UNL1        0.0371
     12 C         142.3235  141.9159  165.5183 C.ar    1  UNL1        0.0043
     13 C         142.0732  143.2670  164.9168 C.ar    1  UNL1        0.0002
     14 C         143.1059  143.8957  164.0290 C.ar    1  UNL1        0.0023
     15 C         144.3889  143.1734  163.7427 C.ar    1  UNL1        0.0296
     16 C         144.6393  141.8223  164.3443 C.ar    1  UNL1        0.1401
     17 F         145.9224  141.0999  164.0580 F       1  UNL1       -0.2042
     18 C         143.6067  141.1935  165.2321 C.ar    1  UNL1        0.0297
     19 C         145.0219  143.0778  170.2699 C.3     1  UNL1        0.2525
     20 O         143.5855  143.3922  170.5659 O.3     1  UNL1       -0.4714
     21 C         140.1435  140.2346  164.3263 C.1     1  UNL1        0.1180
     22 N         140.0862  140.0228  162.8424 N.1     1  UNL1       -0.1893
     23 C         138.0782  138.9771  166.1020 C.3     1  UNL1        0.1413
     24 C         138.0353  137.5023  166.3729 C.3     1  UNL1        0.1617
     25 O         137.1158  136.9598  167.4265 O.3     1  UNL1       -0.3799
     26 H         137.4000  137.2767  168.2981 H       1  UNL1        0.2105
@<TRIPOS>BOND
     1    19    20    1
     2    20     1    1
     3     1     2   ar
     4     2     3   ar
     5     3     4   ar
     6     4     5   ar
     7     5     6    2
     8     5     7   ar
     9     7    23    1
    10    23    24    1
    11    24    25    1
    12     7     8   ar
    13     8    21    1
    14    21    22    3
    15     8     9   ar
    16     9    12    1
    17    12    13   ar
    18    13    14   ar
    19    14    15   ar
    20    15    16   ar
    21    16    17    1
    22    16    18   ar
    23     9    10   ar
    24    10    11   ar
    25    11     1   ar
    26    10     4   ar
    27    18    12   ar
    28    25    26    1
@<TRIPOS>MOLECULE
*****
 26 28 0 0 0
SMALL
GASTEIGER

@<TRIPOS>ATOM
      1 C         138.7461  139.1328  166.5425 C.ar    1  UNL1        0.1387
      2 C         138.6223  138.6710  165.1208 C.ar    1  UNL1        0.0371
      3 C         139.5865  139.1671  164.0844 C.ar    1  UNL1        0.0078
      4 C         140.6745  140.1251  164.4697 C.ar    1  UNL1        0.0565
      5 C         141.6387  140.6212  163.4333 C.ar    1  UNL1        0.2614
      6 O         141.5149  140.1594  162.0116 O.2     1  UNL1       -0.2670
      7 N         142.7267  141.5792  163.8186 N.ar    1  UNL1       -0.2847
      8 C         142.8506  142.0410  165.2404 C.ar    1  UNL1        0.1318
      9 C         141.8864  141.5449  166.2768 C.ar    1  UNL1        0.0261
     10 C         140.7983  140.5869  165.8915 C.ar    1  UNL1        0.0097
     11 C         139.8341  140.0907  166.9279 C.ar    1  UNL1        0.0371
     12 C         142.0102  142.0067  167.6986 C.ar    1  UNL1        0.0043
     13 C         143.1195  141.4846  168.5628 C.ar    1  UNL1        0.0002
     14 C         143.2433  141.9465  169.9846 C.ar    1  UNL1        0.0023
     15 C         142.2578  142.9303  170.5421 C.ar    1  UNL1        0.0296
     16 C         141.1485  143.4523  169.6779 C.ar    1  UNL1        0.1401
     17 F         140.1630  144.4361  170.2354 F       1  UNL1       -0.2042
     18 C         141.0247  142.9905  168.2561 C.ar    1  UNL1        0.0297
     19 C         137.0330  137.3565  167.3548 C.3     1  UNL1        0.2525
     20 O         137.7819  138.6366  167.5789 O.3     1  UNL1       -0.4714
     21 C         143.9386  142.9990  165.6258 C.1     1  UNL1        0.1180
     22 N         145.0267  143.9569  166.0111 N.1     1  UNL1       -0.1893
     23 C         143.6909  142.0753  162.7822 C.3     1  UNL1        0.1413
     24 C         144.9619  141.3232  162.5191 C.3     1  UNL1        0.1617
     25 O         146.2633  141.8375  163.0594 O.3     1  UNL1       -0.3799
     26 H         146.4812  142.6797  162.6303 H       1  UNL1        0.2105
@<TRIPOS>BOND
     1    19    20    1
     2    20     1    1
     3     1     2   ar
     4     2     3   ar
     5     3     4   ar
     6     4     5   ar
     7     5     6    2
     8     5     7   ar
     9     7    23    1
    10    23    24    1
    11    24    25    1
    12     7     8   ar
    13     8    21    1
    14    21    22    3
    15     8     9   ar
    16     9    12    1
    17    12    13   ar
    18    13    14   ar
    19    14    15   ar
    20    15    16   ar
    21    16    17    1
    22    16    18   ar
    23     9    10   ar
    24    10    11   ar
    25    11     1   ar
    26    10     4   ar
    27    18    12   ar
    28    25    26    1
@<TRIPOS>MOLECULE
*****
 26 28 0 0 0
SMALL
GASTEIGER

@<TRIPOS>ATOM
      1 C         140.8775  142.3731  169.5171 C.ar    1  UNL1        0.1387
      2 C         139.9442  141.3160  170.0282 C.ar    1  UNL1        0.0371
      3 C         139.3121  140.3477  169.0727 C.ar    1  UNL1        0.0078
      4 C         139.6135  140.4366  167.6060 C.ar    1  UNL1        0.0565
      5 C         138.9815  139.4683  166.6505 C.ar    1  UNL1        0.2614
      6 O         138.0481  138.4112  167.1616 O.2     1  UNL1       -0.2670
      7 N         139.2828  139.5572  165.1838 N.ar    1  UNL1       -0.2847
      8 C         140.2161  140.6144  164.6725 C.ar    1  UNL1        0.1318
      9 C         140.8481  141.5826  165.6280 C.ar    1  UNL1        0.0261
     10 C         140.5468  141.4937  167.0948 C.ar    1  UNL1        0.0097
     11 C         141.1788  142.4620  168.0504 C.ar    1  UNL1        0.0371
     12 C         141.7814  142.6398  165.1169 C.ar    1  UNL1        0.0043
     13 C         143.2637  142.4709  165.2731 C.ar    1  UNL1        0.0002
     14 C         144.1970  143.5281  164.7619 C.ar    1  UNL1        0.0023
     15 C         143.6481  144.7541  164.0945 C.ar    1  UNL1        0.0296
     16 C         142.1658  144.9230  163.9382 C.ar    1  UNL1        0.1401
     17 F         141.6169  146.1490  163.2708 F       1  UNL1       -0.2042
     18 C         141.2325  143.8659  164.4494 C.ar    1  UNL1        0.0297
     19 C         142.9900  143.3026  170.7100 C.3     1  UNL1        0.2525
     20 O         141.5095  143.3414  170.4726 O.3     1  UNL1       -0.4714
     21 C         140.5174  140.7032  163.2058 C.1     1  UNL1        0.1180
     22 N         140.8187  140.7922  161.7390 N.1     1  UNL1       -0.1893
     23 C         138.6508  138.5889  164.2282 C.3     1  UNL1        0.1413
     24 C         139.4573  137.4567  163.6648 C.3     1  UNL1        0.1617
     25 O         139.6821  137.3597  162.1849 O.3     1  UNL1       -0.3799
     26 H         138.8365  137.1940  161.7395 H       1  UNL1        0.2105
@<TRIPOS>BOND
     1    19    20    1
     2    20     1    1
     3     1     2   ar
     4     2     3   ar
     5     3     4   ar
     6     4     5   ar
     7     5     6    2
     8     5     7   ar
     9     7    23    1
    10    23    24    1
    11    24    25    1
    12     7     8   ar
    13     8    21    1
    14    21    22    3
    15     8     9   ar
    16     9    12    1
    17    12    13   ar
    18    13    14   ar
    19    14    15   ar
    20    15    16   ar
    21    16    17    1
    22    16    18   ar
    23     9    10   ar
    24    10    11   ar
    25    11     1   ar
    26    10     4   ar
    27    18    12   ar
    28    25    26    1
@<TRIPOS>MOLECULE
*****
 26 28 0 0 0
SMALL
GASTEIGER

@<TRIPOS>ATOM
      1 C         143.4155  143.2102  163.7574 C.ar    1  UNL1        0.1387
      2 C         144.4076  143.6516  164.7922 C.ar    1  UNL1        0.0371
      3 C         144.2131  143.2683  166.2293 C.ar    1  UNL1        0.0078
      4 C         143.0264  142.4437  166.6316 C.ar    1  UNL1        0.0565
      5 C         142.8318  142.0605  168.0687 C.ar    1  UNL1        0.2614
      6 O         143.8239  142.5018  169.1035 O.2     1  UNL1       -0.2670
      7 N         141.6452  141.2359  168.4710 N.ar    1  UNL1       -0.2847
      8 C         140.6530  140.7945  167.4361 C.ar    1  UNL1        0.1318
      9 C         140.8476  141.1778  165.9990 C.ar    1  UNL1        0.0261
     10 C         142.0343  142.0024  165.5968 C.ar    1  UNL1        0.0097
     11 C         142.2289  142.3857  164.1597 C.ar    1  UNL1        0.0371
     12 C         139.8555  140.7365  164.9641 C.ar    1  UNL1        0.0043
     13 C         138.7051  141.6275  164.5999 C.ar    1  UNL1        0.0002
     14 C         137.7130  141.1861  163.5650 C.ar    1  UNL1        0.0023
     15 C         137.8713  139.8538  162.8944 C.ar    1  UNL1        0.0296
     16 C         139.0217  138.9627  163.2586 C.ar    1  UNL1        0.1401
     17 F         139.1800  137.6304  162.5880 F       1  UNL1       -0.2042
     18 C         140.0138  139.4041  164.2935 C.ar    1  UNL1        0.0297
     19 C         144.3599  142.6810  161.3956 C.3     1  UNL1        0.2525
     20 O         143.6101  143.5935  162.3203 O.3     1  UNL1       -0.4714
     21 C         139.4664  139.9699  167.8383 C.1     1  UNL1        0.1180
     22 N         138.2796  139.1453  168.2406 N.1     1  UNL1       -0.1893
     23 C         141.4506  140.8526  169.9081 C.3     1  UNL1        0.1413
     24 C         141.1056  141.9011  170.9238 C.3     1  UNL1        0.1617
     25 O         142.1678  142.4406  171.8353 O.3     1  UNL1       -0.3799
     26 H         142.4744  141.7359  172.4271 H       1  UNL1        0.2105
@<TRIPOS>BOND
     1    19    20    1
     2    20     1    1
     3     1     2   ar
     4     2     3   ar
     5     3     4   ar
     6     4     5   ar
     7     5     6    2
     8     5     7   ar
     9     7    23    1
    10    23    24    1
    11    24    25    1
    12     7     8   ar
    13     8    21    1
    14    21    22    3
    15     8     9   ar
    16     9    12    1
    17    12    13   ar
    18    13    14   ar
    19    14    15   ar
    20    15    16   ar
    21    16    17    1
    22    16    18   ar
    23     9    10   ar
    24    10    11   ar
    25    11     1   ar
    26    10     4   ar
    27    18    12   ar
    28    25    26    1
@<TRIPOS>MOLECULE
*****
 26 28 0 0 0
SMALL
GASTEIGER

@<TRIPOS>ATOM
      1 C         140.2102  140.8972  169.6684 C.ar    1  UNL1        0.1387
      2 C         141.2336  139.8986  170.1217 C.ar    1  UNL1        0.0371
      3 C         142.1777  139.2888  169.1285 C.ar    1  UNL1        0.0078
      4 C         142.0985  139.6774  167.6819 C.ar    1  UNL1        0.0565
      5 C         143.0427  139.0675  166.6887 C.ar    1  UNL1        0.2614
      6 O         144.0661  138.0690  167.1420 O.2     1  UNL1       -0.2670
      7 N         142.9635  139.4562  165.2421 N.ar    1  UNL1       -0.2847
      8 C         141.9401  140.4548  164.7887 C.ar    1  UNL1        0.1318
      9 C         140.9959  141.0646  165.7819 C.ar    1  UNL1        0.0261
     10 C         141.0751  140.6759  167.2286 C.ar    1  UNL1        0.0097
     11 C         140.1310  141.2858  168.2218 C.ar    1  UNL1        0.0371
     12 C         139.9725  142.0632  165.3286 C.ar    1  UNL1        0.0043
     13 C         140.1531  143.5184  165.6447 C.ar    1  UNL1        0.0002
     14 C         139.1296  144.5169  165.1913 C.ar    1  UNL1        0.0023
     15 C         137.9256  144.0603  164.4219 C.ar    1  UNL1        0.0296
     16 C         137.7451  142.6051  164.1059 C.ar    1  UNL1        0.1401
     17 F         136.5412  142.1485  163.3365 F       1  UNL1       -0.2042
     18 C         138.7685  141.6066  164.5592 C.ar    1  UNL1        0.0297
     19 C         139.4124  142.9490  171.0482 C.3     1  UNL1        0.2525
     20 O         139.2660  141.5071  170.6617 O.3     1  UNL1       -0.4714
     21 C         141.8609  140.8434  163.3421 C.1     1  UNL1        0.1180
     22 N         141.7816  141.2321  161.8955 N.1     1  UNL1       -0.1893
     23 C         143.9077  138.8463  164.2488 C.3     1  UNL1        0.1413
     24 C         145.1997  139.5347  163.9216 C.3     1  UNL1        0.1617
     25 O         145.2935  140.4186  162.7133 O.3     1  UNL1       -0.3799
     26 H         145.1875  139.8827  161.9117 H       1  UNL1        0.2105
@<TRIPOS>BOND
     1    19    20    1
     2    20     1    1
     3     1     2   ar
     4     2     3   ar
     5     3     4   ar
     6     4     5   ar
     7     5     6    2
     8     5     7   ar
     9     7    23    1
    10    23    24    1
    11    24    25    1
    12     7     8   ar
    13     8    21    1
    14    21    22    3
    15     8     9   ar
    16     9    12    1
    17    12    13   ar
    18    13    14   ar
    19    14    15   ar
    20    15    16   ar
    21    16    17    1
    22    16    18   ar
    23     9    10   ar
    24    10    11   ar
    25    11     1   ar
    26    10     4   ar
    27    18    12   ar
    28    25    26    1
@<TRIPOS>MOLECULE
*****
 26 28 0 0 0
SMALL
GASTEIGER

@<TRIPOS>ATOM
      1 C         144.6404  140.0815  164.5527 C.ar    1  UNL1        0.1387
      2 C         145.5272  141.1591  164.0029 C.ar    1  UNL1        0.0371
      3 C         144.9243  142.4113  163.4384 C.ar    1  UNL1        0.0078
      4 C         143.4346  142.5858  163.4238 C.ar    1  UNL1        0.0565
      5 C         142.8317  143.8380  162.8593 C.ar    1  UNL1        0.2614
      6 O         143.7185  144.9156  162.3095 O.2     1  UNL1       -0.2670
      7 N         141.3420  144.0126  162.8447 N.ar    1  UNL1       -0.2847
      8 C         140.4551  142.9350  163.3945 C.ar    1  UNL1        0.1318
      9 C         141.0580  141.6828  163.9590 C.ar    1  UNL1        0.0261
     10 C         142.5478  141.5083  163.9736 C.ar    1  UNL1        0.0097
     11 C         143.1507  140.2561  164.5381 C.ar    1  UNL1        0.0371
     12 C         140.1712  140.6053  164.5089 C.ar    1  UNL1        0.0043
     13 C         139.7194  140.6623  165.9381 C.ar    1  UNL1        0.0002
     14 C         138.8326  139.5847  166.4879 C.ar    1  UNL1        0.0023
     15 C         138.3975  138.4501  165.6086 C.ar    1  UNL1        0.0296
     16 C         138.8492  138.3930  164.1793 C.ar    1  UNL1        0.1401
     17 F         138.4142  137.2584  163.3000 F       1  UNL1       -0.2042
     18 C         139.7360  139.4706  163.6295 C.ar    1  UNL1        0.0297
     19 C         144.5333  138.0795  166.2051 C.3     1  UNL1        0.2525
     20 O         145.2433  138.8294  165.1172 O.3     1  UNL1       -0.4714
     21 C         138.9654  143.1096  163.3799 C.1     1  UNL1        0.1180
     22 N         137.4756  143.2841  163.3653 N.1     1  UNL1       -0.1893
     23 C         140.7391  145.2647  162.2802 C.3     1  UNL1        0.1413
     24 C         140.5970  145.4255  160.7956 C.3     1  UNL1        0.1617
     25 O         141.8191  145.5023  159.9292 O.3     1  UNL1       -0.3799
     26 H         142.3103  146.3133  160.1341 H       1  UNL1        0.2105
@<TRIPOS>BOND
     1    19    20    1
     2    20     1    1
     3     1     2   ar
     4     2     3   ar
     5     3     4   ar
     6     4     5   ar
     7     5     6    2
     8     5     7   ar
     9     7    23    1
    10    23    24    1
    11    24    25    1
    12     7     8   ar
    13     8    21    1
    14    21    22    3
    15     8     9   ar
    16     9    12    1
    17    12    13   ar
    18    13    14   ar
    19    14    15   ar
    20    15    16   ar
    21    16    17    1
    22    16    18   ar
    23     9    10   ar
    24    10    11   ar
    25    11     1   ar
    26    10     4   ar
    27    18    12   ar
    28    25    26    1
@<TRIPOS>MOLECULE
*****
 26 28 0 0 0
SMALL
GASTEIGER

@<TRIPOS>ATOM
      1 C         141.6002  140.3549  168.5826 C.ar    1  UNL1        0.1387
      2 C         142.5169  141.4285  169.0896 C.ar    1  UNL1        0.0371
      3 C         143.2933  142.2707  168.1212 C.ar    1  UNL1        0.0078
      4 C         143.1531  142.0393  166.6458 C.ar    1  UNL1        0.0565
      5 C         143.9296  142.8815  165.6774 C.ar    1  UNL1        0.2614
      6 O         144.8463  143.9551  166.1844 O.2     1  UNL1       -0.2670
      7 N         143.7894  142.6501  164.2021 N.ar    1  UNL1       -0.2847
      8 C         142.8727  141.5765  163.6950 C.ar    1  UNL1        0.1318
      9 C         142.0963  140.7343  164.6634 C.ar    1  UNL1        0.0261
     10 C         142.2365  140.9657  166.1388 C.ar    1  UNL1        0.0097
     11 C         141.4600  140.1235  167.1072 C.ar    1  UNL1        0.0371
     12 C         141.1796  139.6607  164.1564 C.ar    1  UNL1        0.0043
     13 C         141.6376  138.2325  164.1338 C.ar    1  UNL1        0.0002
     14 C         140.7208  137.1588  163.6267 C.ar    1  UNL1        0.0023
     15 C         139.3462  137.5135  163.1424 C.ar    1  UNL1        0.0296
     16 C         138.8882  138.9417  163.1650 C.ar    1  UNL1        0.1401
     17 F         137.5136  139.2963  162.6807 F       1  UNL1       -0.2042
     18 C         139.8049  140.0153  163.6720 C.ar    1  UNL1        0.0297
     19 C         140.0460  140.1642  170.6558 C.3     1  UNL1        0.2525
     20 O         140.8238  139.5126  169.5510 O.3     1  UNL1       -0.4714
     21 C         142.7325  141.3451  162.2196 C.1     1  UNL1        0.1180
     22 N         142.5923  141.1137  160.7442 N.1     1  UNL1       -0.1893
     23 C         144.5659  143.4924  163.2337 C.3     1  UNL1        0.1413
     24 C         144.0503  144.8429  162.8331 C.3     1  UNL1        0.1617
     25 O         142.8774  144.9527  161.9044 O.3     1  UNL1       -0.3799
     26 H         143.1225  144.6071  161.0318 H       1  UNL1        0.2105
@<TRIPOS>BOND
     1    19    20    1
     2    20     1    1
     3     1     2   ar
     4     2     3   ar
     5     3     4   ar
     6     4     5   ar
     7     5     6    2
     8     5     7   ar
     9     7    23    1
    10    23    24    1
    11    24    25    1
    12     7     8   ar
    13     8    21    1
    14    21    22    3
    15     8     9   ar
    16     9    12    1
    17    12    13   ar
    18    13    14   ar
    19    14    15   ar
    20    15    16   ar
    21    16    17    1
    22    16    18   ar
    23     9    10   ar
    24    10    11   ar
    25    11     1   ar
    26    10     4   ar
    27    18    12   ar
    28    25    26    1
