@<TRIPOS>MOLECULE
*****
 29 31 0 0 0
SMALL
GASTEIGER

@<TRIPOS>ATOM
      1 N         140.4416  141.2874  166.6076 N.pl3   1  UNL1       -0.2851
      2 C         141.2104  141.8817  167.7503 C.ar    1  UNL1        0.0518
      3 C         142.6924  141.6714  167.8470 C.ar    1  UNL1        0.0171
      4 C         143.4613  142.2657  168.9898 C.ar    1  UNL1        0.0309
      5 C         142.7480  143.0703  170.0357 C.ar    1  UNL1        0.1402
      6 F         143.5169  143.6646  171.1784 F       1  UNL1       -0.2042
      7 C         141.2660  143.2806  169.9389 C.ar    1  UNL1        0.0309
      8 C         140.4972  142.6863  168.7963 C.ar    1  UNL1        0.0171
      9 C         139.7769  142.1829  165.6046 C.ar    1  UNL1        0.0518
     10 C         140.4177  143.4832  165.2192 C.ar    1  UNL1        0.0171
     11 C         139.7529  144.3787  164.2162 C.ar    1  UNL1        0.0309
     12 C         138.4474  143.9740  163.5985 C.ar    1  UNL1        0.1402
     13 F         137.7826  144.8695  162.5954 F       1  UNL1       -0.2042
     14 C         137.8065  142.6737  163.9838 C.ar    1  UNL1        0.0309
     15 C         138.4713  141.7782  164.9869 C.ar    1  UNL1        0.0171
     16 C         140.3375  139.7976  166.4681 C.3     1  UNL1        0.1167
     17 C         141.0161  139.1021  165.3252 C.3     1  UNL1        0.1112
     18 O         143.7261  138.1046  166.1380 O.2     1  UNL1       -0.2751
     19 C         143.6040  139.1974  165.1177 C.2     1  UNL1        0.2229
     20 N         142.2490  139.6961  164.7114 N.am    1  UNL1       -0.3026
     21 H         142.1689  140.4134  164.0417 H       1  UNL1        0.1495
     22 C         144.8371  139.7914  164.5039 C.3     1  UNL1        0.0897
     23 C         144.7182  140.7251  163.3360 C.3     1  UNL1        0.0359
     24 C         144.3634  142.1653  163.5602 C.ar    1  UNL1       -0.0217
     25 C         143.7262  142.9608  162.4597 C.ar    1  UNL1       -0.0043
     26 C         143.3714  144.4008  162.6839 C.ar    1  UNL1       -0.0003
     27 C         143.6538  145.0454  164.0086 C.ar    1  UNL1       -0.0000
     28 C         144.2910  144.2499  165.1090 C.ar    1  UNL1       -0.0003
     29 C         144.6458  142.8098  164.8848 C.ar    1  UNL1       -0.0043
@<TRIPOS>BOND
     1    18    19    2
     2    19    22    1
     3    22    23    1
     4    23    24    1
     5    24    25   ar
     6    25    26   ar
     7    26    27   ar
     8    27    28   ar
     9    28    29   ar
    10    19    20   am
    11    20    17    1
    12    17    16    1
    13    16     1    1
    14     1     2    1
    15     2     3   ar
    16     3     4   ar
    17     4     5   ar
    18     5     6    1
    19     5     7   ar
    20     7     8   ar
    21     1     9    1
    22     9    10   ar
    23    10    11   ar
    24    11    12   ar
    25    12    13    1
    26    12    14   ar
    27    14    15   ar
    28    29    24   ar
    29     8     2   ar
    30    15     9   ar
    31    20    21    1
@<TRIPOS>MOLECULE
*****
 29 31 0 0 0
SMALL
GASTEIGER

@<TRIPOS>ATOM
      1 N         140.3707  141.2782  166.6535 N.pl3   1  UNL1       -0.2851
      2 C         139.7449  142.1716  165.6239 C.ar    1  UNL1        0.0518
      3 C         138.4559  141.7728  164.9686 C.ar    1  UNL1        0.0171
      4 C         137.8302  142.6663  163.9389 C.ar    1  UNL1        0.0309
      5 C         138.4934  143.9586  163.5646 C.ar    1  UNL1        0.1402
      6 F         137.8677  144.8521  162.5350 F       1  UNL1       -0.2042
      7 C         139.7824  144.3574  164.2200 C.ar    1  UNL1        0.0309
      8 C         140.4082  143.4640  165.2496 C.ar    1  UNL1        0.0171
      9 C         141.1596  141.8725  167.7824 C.ar    1  UNL1        0.0518
     10 C         140.4654  142.6787  168.8397 C.ar    1  UNL1        0.0171
     11 C         141.2543  143.2730  169.9686 C.ar    1  UNL1        0.0309
     12 C         142.7375  143.0611  170.0401 C.ar    1  UNL1        0.1402
     13 F         143.5265  143.6554  171.1690 F       1  UNL1       -0.2042
     14 C         143.4318  142.2549  168.9828 C.ar    1  UNL1        0.0309
     15 C         142.6428  141.6606  167.8540 C.ar    1  UNL1        0.0171
     16 C         140.2075  139.7904  166.5542 C.3     1  UNL1        0.1167
     17 C         140.9848  139.0173  165.5304 C.3     1  UNL1        0.1112
     18 O         143.7539  138.0713  166.1910 O.2     1  UNL1       -0.2751
     19 C         143.5558  139.1704  165.1897 C.2     1  UNL1        0.2229
     20 N         142.1712  139.6434  164.8594 N.am    1  UNL1       -0.3026
     21 H         142.0411  140.3649  164.2023 H       1  UNL1        0.1495
     22 C         144.7423  139.7966  164.5187 C.3     1  UNL1        0.0897
     23 C         144.5451  140.7074  163.3434 C.3     1  UNL1        0.0359
     24 C         144.2437  142.1604  163.5628 C.ar    1  UNL1       -0.0217
     25 C         144.5764  142.8056  164.8754 C.ar    1  UNL1       -0.0043
     26 C         144.2750  144.2585  165.0947 C.ar    1  UNL1       -0.0003
     27 C         143.6409  145.0663  164.0014 C.ar    1  UNL1       -0.0000
     28 C         143.3082  144.4211  162.6887 C.ar    1  UNL1       -0.0003
     29 C         143.6096  142.9682  162.4694 C.ar    1  UNL1       -0.0043
@<TRIPOS>BOND
     1    18    19    2
     2    19    22    1
     3    22    23    1
     4    23    24    1
     5    24    25   ar
     6    25    26   ar
     7    26    27   ar
     8    27    28   ar
     9    28    29   ar
    10    19    20   am
    11    20    17    1
    12    17    16    1
    13    16     1    1
    14     1     2    1
    15     2     3   ar
    16     3     4   ar
    17     4     5   ar
    18     5     6    1
    19     5     7   ar
    20     7     8   ar
    21     1     9    1
    22     9    10   ar
    23    10    11   ar
    24    11    12   ar
    25    12    13    1
    26    12    14   ar
    27    14    15   ar
    28    29    24   ar
    29     8     2   ar
    30    15     9   ar
    31    20    21    1
@<TRIPOS>MOLECULE
*****
 29 31 0 0 0
SMALL
GASTEIGER

@<TRIPOS>ATOM
      1 N         141.0958  139.7412  166.5461 N.pl3   1  UNL1       -0.2851
      2 C         140.1653  139.4527  165.4056 C.ar    1  UNL1        0.0518
      3 C         140.2015  138.1150  164.7280 C.ar    1  UNL1        0.0171
      4 C         139.2709  137.8266  163.5874 C.ar    1  UNL1        0.0309
      5 C         138.3040  138.8758  163.1246 C.ar    1  UNL1        0.1402
      6 F         137.3734  138.5873  161.9841 F       1  UNL1       -0.2042
      7 C         138.2677  140.2135  163.8023 C.ar    1  UNL1        0.0309
      8 C         139.1983  140.5020  164.9427 C.ar    1  UNL1        0.0171
      9 C         140.6414  140.6057  167.6847 C.ar    1  UNL1        0.0518
     10 C         141.0511  142.0475  167.7416 C.ar    1  UNL1        0.0171
     11 C         140.5967  142.9119  168.8801 C.ar    1  UNL1        0.0309
     12 C         139.7326  142.3345  169.9617 C.ar    1  UNL1        0.1402
     13 F         139.2782  143.1989  171.1003 F       1  UNL1       -0.2042
     14 C         139.3230  140.8927  169.9048 C.ar    1  UNL1        0.0309
     15 C         139.7774  140.0283  168.7663 C.ar    1  UNL1        0.0171
     16 C         142.4808  139.1653  166.5480 C.3     1  UNL1        0.1167
     17 C         143.5094  139.6821  165.5862 C.3     1  UNL1        0.1112
     18 O         142.4239  140.2614  162.8502 O.2     1  UNL1       -0.2751
     19 C         142.8894  141.3866  163.7261 C.2     1  UNL1        0.2229
     20 N         143.4321  141.0969  165.0941 N.am    1  UNL1       -0.3026
     21 H         143.7376  141.8354  165.6690 H       1  UNL1        0.1495
     22 C         142.8121  142.8015  163.2339 C.3     1  UNL1        0.0897
     23 C         141.6038  143.2673  162.4771 C.3     1  UNL1        0.0359
     24 C         140.3437  143.6118  163.2144 C.ar    1  UNL1       -0.0217
     25 C         139.0244  143.5774  162.5016 C.ar    1  UNL1       -0.0043
     26 C         137.7644  143.9219  163.2389 C.ar    1  UNL1       -0.0003
     27 C         137.8237  144.3008  164.6890 C.ar    1  UNL1       -0.0000
     28 C         139.1430  144.3352  165.4019 C.ar    1  UNL1       -0.0003
     29 C         140.4030  143.9907  164.6645 C.ar    1  UNL1       -0.0043
@<TRIPOS>BOND
     1    18    19    2
     2    19    22    1
     3    22    23    1
     4    23    24    1
     5    24    25   ar
     6    25    26   ar
     7    26    27   ar
     8    27    28   ar
     9    28    29   ar
    10    19    20   am
    11    20    17    1
    12    17    16    1
    13    16     1    1
    14     1     2    1
    15     2     3   ar
    16     3     4   ar
    17     4     5   ar
    18     5     6    1
    19     5     7   ar
    20     7     8   ar
    21     1     9    1
    22     9    10   ar
    23    10    11   ar
    24    11    12   ar
    25    12    13    1
    26    12    14   ar
    27    14    15   ar
    28    29    24   ar
    29     8     2   ar
    30    15     9   ar
    31    20    21    1
@<TRIPOS>MOLECULE
*****
 29 31 0 0 0
SMALL
GASTEIGER

@<TRIPOS>ATOM
      1 N         140.6675  139.6638  162.7314 N.pl3   1  UNL1       -0.2851
      2 C         139.8218  139.2559  163.9012 C.ar    1  UNL1        0.0518
      3 C         139.5158  137.8064  164.1363 C.ar    1  UNL1        0.0171
      4 C         138.6700  137.3986  165.3061 C.ar    1  UNL1        0.0309
      5 C         138.1303  138.4403  166.2408 C.ar    1  UNL1        0.1402
      6 F         137.2846  138.0324  167.4106 F       1  UNL1       -0.2042
      7 C         138.4363  139.8898  166.0057 C.ar    1  UNL1        0.0309
      8 C         139.2820  140.2976  164.8359 C.ar    1  UNL1        0.0171
      9 C         142.0916  140.0833  162.9455 C.ar    1  UNL1        0.0518
     10 C         142.7426  141.0415  161.9926 C.ar    1  UNL1        0.0171
     11 C         144.1667  141.4610  162.2068 C.ar    1  UNL1        0.0309
     12 C         144.9399  140.9222  163.3738 C.ar    1  UNL1        0.1402
     13 F         146.3641  141.3417  163.5879 F       1  UNL1       -0.2042
     14 C         144.2889  139.9640  164.3266 C.ar    1  UNL1        0.0309
     15 C         142.8648  139.5445  164.1125 C.ar    1  UNL1        0.0171
     16 C         140.0890  139.6522  161.3475 C.3     1  UNL1        0.1167
     17 C         139.0532  140.6653  160.9590 C.3     1  UNL1        0.1112
     18 O         136.9700  141.8092  162.7897 O.2     1  UNL1       -0.2751
     19 C         138.1308  142.6535  162.3539 C.2     1  UNL1        0.2229
     20 N         139.1724  142.0815  161.4386 N.am    1  UNL1       -0.3026
     21 H         139.9342  142.6356  161.1526 H       1  UNL1        0.1495
     22 C         138.2499  144.0698  162.8336 C.3     1  UNL1        0.0897
     23 C         138.9411  144.3665  164.1313 C.3     1  UNL1        0.0359
     24 C         140.4361  144.2819  164.2213 C.ar    1  UNL1       -0.0217
     25 C         141.2897  145.2296  163.4321 C.ar    1  UNL1       -0.0043
     26 C         142.7846  145.1450  163.5221 C.ar    1  UNL1       -0.0003
     27 C         143.4258  144.1126  164.4014 C.ar    1  UNL1       -0.0000
     28 C         142.5721  143.1649  165.1906 C.ar    1  UNL1       -0.0003
     29 C         141.0772  143.2495  165.1006 C.ar    1  UNL1       -0.0043
@<TRIPOS>BOND
     1    18    19    2
     2    19    22    1
     3    22    23    1
     4    23    24    1
     5    24    25   ar
     6    25    26   ar
     7    26    27   ar
     8    27    28   ar
     9    28    29   ar
    10    19    20   am
    11    20    17    1
    12    17    16    1
    13    16     1    1
    14     1     2    1
    15     2     3   ar
    16     3     4   ar
    17     4     5   ar
    18     5     6    1
    19     5     7   ar
    20     7     8   ar
    21     1     9    1
    22     9    10   ar
    23    10    11   ar
    24    11    12   ar
    25    12    13    1
    26    12    14   ar
    27    14    15   ar
    28    29    24   ar
    29     8     2   ar
    30    15     9   ar
    31    20    21    1
@<TRIPOS>MOLECULE
*****
 29 31 0 0 0
SMALL
GASTEIGER

@<TRIPOS>ATOM
      1 N         140.4355  142.2386  165.8752 N.pl3   1  UNL1       -0.2851
      2 C         141.7084  142.3542  165.0903 C.ar    1  UNL1        0.0518
      3 C         141.6844  142.2130  163.5972 C.ar    1  UNL1        0.0171
      4 C         142.9574  142.3287  162.8123 C.ar    1  UNL1        0.0309
      5 C         144.2545  142.5855  163.5205 C.ar    1  UNL1        0.1402
      6 F         145.5275  142.7012  162.7356 F       1  UNL1       -0.2042
      7 C         144.2785  142.7268  165.0136 C.ar    1  UNL1        0.0309
      8 C         143.0056  142.6111  165.7985 C.ar    1  UNL1        0.0171
      9 C         140.4818  141.8784  167.3306 C.ar    1  UNL1        0.0518
     10 C         140.3639  142.9508  168.3727 C.ar    1  UNL1        0.0171
     11 C         140.4102  142.5906  169.8281 C.ar    1  UNL1        0.0309
     12 C         140.5745  141.1580  170.2413 C.ar    1  UNL1        0.1402
     13 F         140.6208  140.7978  171.6967 F       1  UNL1       -0.2042
     14 C         140.6924  140.0857  169.1992 C.ar    1  UNL1        0.0309
     15 C         140.6461  140.4459  167.7438 C.ar    1  UNL1        0.0171
     16 C         139.1162  142.4832  165.2048 C.3     1  UNL1        0.1167
     17 C         138.2562  141.3240  164.7962 C.3     1  UNL1        0.1112
     18 O         137.8714  138.8274  166.4144 O.2     1  UNL1       -0.2751
     19 C         138.6981  138.7903  165.1633 C.2     1  UNL1        0.2229
     20 N         138.8905  140.0386  164.3542 N.am    1  UNL1       -0.3026
     21 H         139.4331  140.0143  163.5331 H       1  UNL1        0.1495
     22 C         139.3325  137.5049  164.7214 C.3     1  UNL1        0.0897
     23 C         140.3760  137.5150  163.6440 C.3     1  UNL1        0.0359
     24 C         141.7484  138.0465  163.9340 C.ar    1  UNL1       -0.0217
     25 C         142.6772  138.3812  162.8048 C.ar    1  UNL1       -0.0043
     26 C         144.0495  138.9126  163.0949 C.ar    1  UNL1       -0.0003
     27 C         144.4931  139.1093  164.5143 C.ar    1  UNL1       -0.0000
     28 C         143.5644  138.7745  165.6435 C.ar    1  UNL1       -0.0003
     29 C         142.1920  138.2431  165.3534 C.ar    1  UNL1       -0.0043
@<TRIPOS>BOND
     1    18    19    2
     2    19    22    1
     3    22    23    1
     4    23    24    1
     5    24    25   ar
     6    25    26   ar
     7    26    27   ar
     8    27    28   ar
     9    28    29   ar
    10    19    20   am
    11    20    17    1
    12    17    16    1
    13    16     1    1
    14     1     2    1
    15     2     3   ar
    16     3     4   ar
    17     4     5   ar
    18     5     6    1
    19     5     7   ar
    20     7     8   ar
    21     1     9    1
    22     9    10   ar
    23    10    11   ar
    24    11    12   ar
    25    12    13    1
    26    12    14   ar
    27    14    15   ar
    28    29    24   ar
    29     8     2   ar
    30    15     9   ar
    31    20    21    1
@<TRIPOS>MOLECULE
*****
 29 31 0 0 0
SMALL
GASTEIGER

@<TRIPOS>ATOM
      1 N         142.8687  142.7495  165.6132 N.pl3   1  UNL1       -0.2851
      2 C         142.7949  141.7220  166.7035 C.ar    1  UNL1        0.0518
      3 C         142.5436  140.2831  166.3623 C.ar    1  UNL1        0.0171
      4 C         142.4698  139.2556  167.4528 C.ar    1  UNL1        0.0309
      5 C         142.6472  139.6671  168.8842 C.ar    1  UNL1        0.1402
      6 F         142.5734  138.6396  169.9747 F       1  UNL1       -0.2042
      7 C         142.8985  141.1060  169.2254 C.ar    1  UNL1        0.0309
      8 C         142.9723  142.1335  168.1350 C.ar    1  UNL1        0.0171
      9 C         141.6102  143.2537  164.9713 C.ar    1  UNL1        0.0518
     10 C         140.3109  143.1931  165.7184 C.ar    1  UNL1        0.0171
     11 C         139.0525  143.6973  165.0766 C.ar    1  UNL1        0.0309
     12 C         139.0933  144.2622  163.6876 C.ar    1  UNL1        0.1402
     13 F         137.8348  144.7665  163.0458 F       1  UNL1       -0.2042
     14 C         140.3925  144.3229  162.9406 C.ar    1  UNL1        0.0309
     15 C         141.6510  143.8186  163.5824 C.ar    1  UNL1        0.0171
     16 C         144.2010  143.2726  165.1647 C.3     1  UNL1        0.1167
     17 C         145.0785  142.4334  164.2839 C.3     1  UNL1        0.1112
     18 O         145.2728  139.4416  164.3891 O.2     1  UNL1       -0.2751
     19 C         144.5681  140.1076  163.2446 C.2     1  UNL1        0.2229
     20 N         144.4709  141.6035  163.1920 N.am    1  UNL1       -0.3026
     21 H         144.0084  142.0407  162.4409 H       1  UNL1        0.1495
     22 C         143.9605  139.2777  162.1528 C.3     1  UNL1        0.0897
     23 C         143.0292  138.1529  162.4955 C.3     1  UNL1        0.0359
     24 C         141.7496  138.4348  163.2258 C.ar    1  UNL1       -0.0217
     25 C         141.1645  137.3999  164.1405 C.ar    1  UNL1       -0.0043
     26 C         139.8850  137.6817  164.8707 C.ar    1  UNL1       -0.0003
     27 C         139.1906  138.9985  164.6863 C.ar    1  UNL1       -0.0000
     28 C         139.7757  140.0334  163.7717 C.ar    1  UNL1       -0.0003
     29 C         141.0552  139.7515  163.0414 C.ar    1  UNL1       -0.0043
@<TRIPOS>BOND
     1    18    19    2
     2    19    22    1
     3    22    23    1
     4    23    24    1
     5    24    25   ar
     6    25    26   ar
     7    26    27   ar
     8    27    28   ar
     9    28    29   ar
    10    19    20   am
    11    20    17    1
    12    17    16    1
    13    16     1    1
    14     1     2    1
    15     2     3   ar
    16     3     4   ar
    17     4     5   ar
    18     5     6    1
    19     5     7   ar
    20     7     8   ar
    21     1     9    1
    22     9    10   ar
    23    10    11   ar
    24    11    12   ar
    25    12    13    1
    26    12    14   ar
    27    14    15   ar
    28    29    24   ar
    29     8     2   ar
    30    15     9   ar
    31    20    21    1
@<TRIPOS>MOLECULE
*****
 29 31 0 0 0
SMALL
GASTEIGER

@<TRIPOS>ATOM
      1 N         142.8518  142.7535  165.5883 N.pl3   1  UNL1       -0.2851
      2 C         141.5921  143.2660  164.9556 C.ar    1  UNL1        0.0518
      3 C         140.2899  143.1725  165.6943 C.ar    1  UNL1        0.0171
      4 C         139.0302  143.6851  165.0615 C.ar    1  UNL1        0.0309
      5 C         139.0726  144.2912  163.6901 C.ar    1  UNL1        0.1402
      6 F         137.8128  144.8039  163.0574 F       1  UNL1       -0.2042
      7 C         140.3747  144.3848  162.9514 C.ar    1  UNL1        0.0309
      8 C         141.6345  143.8722  163.5841 C.ar    1  UNL1        0.0171
      9 C         142.7793  141.7229  166.6758 C.ar    1  UNL1        0.0518
     10 C         142.5440  140.2825  166.3297 C.ar    1  UNL1        0.0171
     11 C         142.4715  139.2520  167.4173 C.ar    1  UNL1        0.0309
     12 C         142.6343  139.6619  168.8509 C.ar    1  UNL1        0.1402
     13 F         142.5619  138.6314  169.9385 F       1  UNL1       -0.2042
     14 C         142.8696  141.1023  169.1970 C.ar    1  UNL1        0.0309
     15 C         142.9421  142.1328  168.1095 C.ar    1  UNL1        0.0171
     16 C         144.1840  143.2714  165.1334 C.3     1  UNL1        0.1167
     17 C         145.0594  142.4236  164.2588 C.3     1  UNL1        0.1112
     18 O         145.2814  139.4332  164.3462 O.2     1  UNL1       -0.2751
     19 C         144.5618  140.0990  163.2109 C.2     1  UNL1        0.2229
     20 N         144.4508  141.5942  163.1672 N.am    1  UNL1       -0.3026
     21 H         143.9785  142.0312  162.4221 H       1  UNL1        0.1495
     22 C         143.9531  139.2695  162.1193 C.3     1  UNL1        0.0897
     23 C         143.0223  138.1445  162.4626 C.3     1  UNL1        0.0359
     24 C         141.7486  138.4245  163.2038 C.ar    1  UNL1       -0.0217
     25 C         141.0409  139.7329  163.0112 C.ar    1  UNL1       -0.0043
     26 C         139.7673  140.0129  163.7525 C.ar    1  UNL1       -0.0003
     27 C         139.2013  138.9844  164.6863 C.ar    1  UNL1       -0.0000
     28 C         139.9090  137.6760  164.8788 C.ar    1  UNL1       -0.0003
     29 C         141.1826  137.3960  164.1376 C.ar    1  UNL1       -0.0043
@<TRIPOS>BOND
     1    18    19    2
     2    19    22    1
     3    22    23    1
     4    23    24    1
     5    24    25   ar
     6    25    26   ar
     7    26    27   ar
     8    27    28   ar
     9    28    29   ar
    10    19    20   am
    11    20    17    1
    12    17    16    1
    13    16     1    1
    14     1     2    1
    15     2     3   ar
    16     3     4   ar
    17     4     5   ar
    18     5     6    1
    19     5     7   ar
    20     7     8   ar
    21     1     9    1
    22     9    10   ar
    23    10    11   ar
    24    11    12   ar
    25    12    13    1
    26    12    14   ar
    27    14    15   ar
    28    29    24   ar
    29     8     2   ar
    30    15     9   ar
    31    20    21    1
@<TRIPOS>MOLECULE
*****
 29 31 0 0 0
SMALL
GASTEIGER

@<TRIPOS>ATOM
      1 N         141.8142  139.8357  164.4764 N.pl3   1  UNL1       -0.2851
      2 C         140.6047  139.4761  165.2875 C.ar    1  UNL1        0.0518
      3 C         140.3176  140.2023  166.5682 C.ar    1  UNL1        0.0171
      4 C         139.1081  139.8427  167.3793 C.ar    1  UNL1        0.0309
      5 C         138.1858  138.7571  166.9097 C.ar    1  UNL1        0.1402
      6 F         136.9762  138.3975  167.7208 F       1  UNL1       -0.2042
      7 C         138.4729  138.0309  165.6290 C.ar    1  UNL1        0.0309
      8 C         139.6823  138.3904  164.8179 C.ar    1  UNL1        0.0171
      9 C         142.3113  141.2508  164.4579 C.ar    1  UNL1        0.0518
     10 C         141.4763  142.3310  163.8367 C.ar    1  UNL1        0.0171
     11 C         141.9734  143.7461  163.8182 C.ar    1  UNL1        0.0309
     12 C         143.3056  144.0810  164.4209 C.ar    1  UNL1        0.1402
     13 F         143.8027  145.4961  164.4024 F       1  UNL1       -0.2042
     14 C         144.1405  143.0008  165.0421 C.ar    1  UNL1        0.0309
     15 C         143.6434  141.5857  165.0606 C.ar    1  UNL1        0.0171
     16 C         142.5265  138.7801  163.6838 C.3     1  UNL1        0.1167
     17 C         142.4068  138.7561  162.1887 C.3     1  UNL1        0.1112
     18 O         139.6945  137.6330  161.5710 O.2     1  UNL1       -0.2751
     19 C         140.0237  139.0476  161.1959 C.2     1  UNL1        0.2229
     20 N         141.3799  139.6091  161.5048 N.am    1  UNL1       -0.3026
     21 H         141.5960  140.5375  161.2586 H       1  UNL1        0.1495
     22 C         138.9967  139.9006  160.5119 C.3     1  UNL1        0.0897
     23 C         137.7749  140.3471  161.2586 C.3     1  UNL1        0.0359
     24 C         137.8672  141.4774  162.2405 C.ar    1  UNL1       -0.0217
     25 C         138.0972  142.8773  161.7532 C.ar    1  UNL1       -0.0043
     26 C         138.1895  144.0075  162.7350 C.ar    1  UNL1       -0.0003
     27 C         138.0520  143.7378  164.2042 C.ar    1  UNL1       -0.0000
     28 C         137.8220  142.3380  164.6915 C.ar    1  UNL1       -0.0003
     29 C         137.7297  141.2078  163.7096 C.ar    1  UNL1       -0.0043
@<TRIPOS>BOND
     1    18    19    2
     2    19    22    1
     3    22    23    1
     4    23    24    1
     5    24    25   ar
     6    25    26   ar
     7    26    27   ar
     8    27    28   ar
     9    28    29   ar
    10    19    20   am
    11    20    17    1
    12    17    16    1
    13    16     1    1
    14     1     2    1
    15     2     3   ar
    16     3     4   ar
    17     4     5   ar
    18     5     6    1
    19     5     7   ar
    20     7     8   ar
    21     1     9    1
    22     9    10   ar
    23    10    11   ar
    24    11    12   ar
    25    12    13    1
    26    12    14   ar
    27    14    15   ar
    28    29    24   ar
    29     8     2   ar
    30    15     9   ar
    31    20    21    1
@<TRIPOS>MOLECULE
*****
 29 31 0 0 0
SMALL
GASTEIGER

@<TRIPOS>ATOM
      1 N         139.8209  140.9818  165.6286 N.pl3   1  UNL1       -0.2851
      2 C         140.9191  140.3190  164.8511 C.ar    1  UNL1        0.0518
      3 C         141.8328  139.3411  165.5284 C.ar    1  UNL1        0.0171
      4 C         142.9310  138.6782  164.7507 C.ar    1  UNL1        0.0309
      5 C         143.1155  138.9933  163.2959 C.ar    1  UNL1        0.1402
      6 F         144.2137  138.3305  162.5182 F       1  UNL1       -0.2042
      7 C         142.2017  139.9712  162.6186 C.ar    1  UNL1        0.0309
      8 C         141.1035  140.6341  163.3961 C.ar    1  UNL1        0.0171
      9 C         139.9945  141.2468  167.0948 C.ar    1  UNL1        0.0518
     10 C         140.6445  142.5176  167.5555 C.ar    1  UNL1        0.0171
     11 C         140.8181  142.7826  169.0217 C.ar    1  UNL1        0.0309
     12 C         140.3417  141.7766  170.0271 C.ar    1  UNL1        0.1402
     13 F         140.5153  142.0415  171.4933 F       1  UNL1       -0.2042
     14 C         139.6917  140.5057  169.5664 C.ar    1  UNL1        0.0309
     15 C         139.5181  140.2408  168.1003 C.ar    1  UNL1        0.0171
     16 C         138.5492  141.3798  164.9400 C.3     1  UNL1        0.1167
     17 C         138.3201  142.8119  164.5568 C.3     1  UNL1        0.1112
     18 O         138.6646  144.1827  161.9108 O.2     1  UNL1       -0.2751
     19 C         139.6614  144.4096  163.0084 C.2     1  UNL1        0.2229
     20 N         139.4892  143.7242  164.3314 N.am    1  UNL1       -0.3026
     21 H         140.1435  143.8731  165.0518 H       1  UNL1        0.1495
     22 C         140.8306  145.3219  162.7829 C.3     1  UNL1        0.0897
     23 C         141.9669  145.3409  163.7619 C.3     1  UNL1        0.0359
     24 C         142.9879  144.2421  163.7473 C.ar    1  UNL1       -0.0217
     25 C         143.8199  144.0076  162.5214 C.ar    1  UNL1       -0.0043
     26 C         144.8408  142.9089  162.5068 C.ar    1  UNL1       -0.0003
     27 C         145.0299  142.0445  163.7181 C.ar    1  UNL1       -0.0000
     28 C         144.1979  142.2790  164.9440 C.ar    1  UNL1       -0.0003
     29 C         143.1769  143.3778  164.9586 C.ar    1  UNL1       -0.0043
@<TRIPOS>BOND
     1    18    19    2
     2    19    22    1
     3    22    23    1
     4    23    24    1
     5    24    25   ar
     6    25    26   ar
     7    26    27   ar
     8    27    28   ar
     9    28    29   ar
    10    19    20   am
    11    20    17    1
    12    17    16    1
    13    16     1    1
    14     1     2    1
    15     2     3   ar
    16     3     4   ar
    17     4     5   ar
    18     5     6    1
    19     5     7   ar
    20     7     8   ar
    21     1     9    1
    22     9    10   ar
    23    10    11   ar
    24    11    12   ar
    25    12    13    1
    26    12    14   ar
    27    14    15   ar
    28    29    24   ar
    29     8     2   ar
    30    15     9   ar
    31    20    21    1
