@<TRIPOS>MOLECULE
*****
 36 39 0 0 0
SMALL
GASTEIGER

@<TRIPOS>ATOM
      1 C         143.6119  140.6875  163.3064 C.ar    1  UNL1        0.0064
      2 C         144.0024  139.6064  164.2702 C.ar    1  UNL1        0.0095
      3 C         143.3627  139.5427  165.6254 C.ar    1  UNL1        0.0574
      4 CL        143.7533  138.4617  166.5891 Cl      1  UNL1       -0.0823
      5 C         142.3324  140.5601  166.0169 C.ar    1  UNL1        0.0114
      6 C         141.9418  141.6412  165.0531 C.ar    1  UNL1        0.0006
      7 C         142.5815  141.7048  163.6979 C.ar    1  UNL1       -0.0016
      8 C         141.9990  142.8768  162.9649 C.ar    1  UNL1       -0.0002
      9 C         142.2498  143.4276  161.5924 C.ar    1  UNL1        0.0009
     10 C         141.5008  144.6392  161.1222 C.ar    1  UNL1        0.0114
     11 C         140.5010  145.2998  162.0244 C.ar    1  UNL1        0.0577
     12 CL        139.7520  146.5114  161.5541 Cl      1  UNL1       -0.0822
     13 C         140.2502  144.7489  163.3968 C.ar    1  UNL1        0.0114
     14 C         140.9992  143.5374  163.8671 C.ar    1  UNL1        0.0008
     15 C         140.9639  142.7738  165.1577 C.2     1  UNL1        0.0000
     16 C         140.1019  143.0877  166.3444 C.2     1  UNL1        0.0000
     17 C         140.1754  142.2297  167.5727 C.ar    1  UNL1        0.0001
     18 C         139.5856  140.8505  167.5606 C.ar    1  UNL1        0.0009
     19 C         139.6591  139.9926  168.7888 C.ar    1  UNL1        0.0114
     20 C         140.3223  140.5138  170.0291 C.ar    1  UNL1        0.0577
     21 CL        140.3958  139.6558  171.2573 Cl      1  UNL1       -0.0822
     22 C         140.9121  141.8930  170.0413 C.ar    1  UNL1        0.0114
     23 C         140.8386  142.7508  168.8131 C.ar    1  UNL1        0.0009
     24 C         144.2517  140.7511  161.9511 C.3     1  UNL1        0.1486
     25 O         145.3426  141.7448  161.6828 O.3     1  UNL1       -0.3786
     26 H         145.5114  142.2641  162.4845 H       1  UNL1        0.2108
     27 C         143.8004  139.8209  160.8643 C.3     1  UNL1        0.1063
     28 N         142.3647  139.3923  160.7923 N.3     1  UNL1       -0.2704
     29 C         141.3170  140.3568  160.3211 C.3     1  UNL1        0.0722
     30 C         139.8803  140.1467  160.6979 C.3     1  UNL1        0.0173
     31 C         138.3974  142.1190  161.5107 C.3     1  UNL1        0.0000
     32 C         139.2744  140.9412  161.8166 C.3     1  UNL1        0.0014
     33 C         141.9768  137.9994  161.1914 C.3     1  UNL1        0.0722
     34 C         141.8271  137.6491  162.6422 C.3     1  UNL1        0.0173
     35 C         140.4618  137.4321  163.2245 C.3     1  UNL1        0.0014
     36 C         139.9757  138.3058  164.3425 C.3     1  UNL1        0.0000
@<TRIPOS>BOND
     1    31    32    1
     2    32    30    1
     3    30    29    1
     4    29    28    1
     5    28    33    1
     6    33    34    1
     7    34    35    1
     8    35    36    1
     9    28    27    1
    10    27    24    1
    11    24    25    1
    12    24     1    1
    13     1     2   ar
    14     2     3   ar
    15     3     4    1
    16     3     5   ar
    17     5     6   ar
    18     6     7   ar
    19     7     8    1
    20     8     9   ar
    21     9    10   ar
    22    10    11   ar
    23    11    12    1
    24    11    13   ar
    25    13    14   ar
    26    14    15    1
    27    15    16    2
    28    16    17    1
    29    17    18   ar
    30    18    19   ar
    31    19    20   ar
    32    20    21    1
    33    20    22   ar
    34    22    23   ar
    35     7     1   ar
    36    14     8   ar
    37    23    17   ar
    38    15     6    1
    39    25    26    1
@<TRIPOS>MOLECULE
*****
 36 39 0 0 0
SMALL
GASTEIGER

@<TRIPOS>ATOM
      1 C         143.6233  140.6324  163.3154 C.ar    1  UNL1        0.0064
      2 C         144.0075  139.5520  164.2824 C.ar    1  UNL1        0.0095
      3 C         143.3701  139.4983  165.6392 C.ar    1  UNL1        0.0574
      4 CL        143.7543  138.4179  166.6062 Cl      1  UNL1       -0.0823
      5 C         142.3484  140.5251  166.0288 C.ar    1  UNL1        0.0114
      6 C         141.9642  141.6055  165.0618 C.ar    1  UNL1        0.0006
      7 C         142.6017  141.6591  163.7051 C.ar    1  UNL1       -0.0016
      8 C         142.0267  142.8327  162.9688 C.ar    1  UNL1       -0.0002
      9 C         142.2789  143.3765  161.5938 C.ar    1  UNL1        0.0009
     10 C         141.5383  144.5920  161.1205 C.ar    1  UNL1        0.0114
     11 C         140.5455  145.2637  162.0222 C.ar    1  UNL1        0.0577
     12 CL        139.8049  146.4793  161.5488 Cl      1  UNL1       -0.0822
     13 C         140.2933  144.7199  163.3972 C.ar    1  UNL1        0.0114
     14 C         141.0339  143.5045  163.8705 C.ar    1  UNL1        0.0008
     15 C         140.9952  142.7460  165.1640 C.2     1  UNL1        0.0000
     16 C         140.1381  143.0710  166.3513 C.2     1  UNL1        0.0000
     17 C         140.2075  142.2171  167.5827 C.ar    1  UNL1        0.0001
     18 C         139.5961  140.8473  167.5809 C.ar    1  UNL1        0.0009
     19 C         139.6655  139.9935  168.8122 C.ar    1  UNL1        0.0114
     20 C         140.3462  140.5094  170.0453 C.ar    1  UNL1        0.0577
     21 CL        140.4156  139.6555  171.2766 Cl      1  UNL1       -0.0822
     22 C         140.9576  141.8791  170.0471 C.ar    1  UNL1        0.0114
     23 C         140.8882  142.7329  168.8158 C.ar    1  UNL1        0.0009
     24 C         144.2609  140.6860  161.9586 C.3     1  UNL1        0.1486
     25 O         145.3273  141.7007  161.6706 O.3     1  UNL1       -0.3786
     26 H         145.4837  142.2388  162.4623 H       1  UNL1        0.2108
     27 C         143.8319  139.7248  160.8899 C.3     1  UNL1        0.1063
     28 N         142.3870  139.3433  160.7605 N.3     1  UNL1       -0.2704
     29 C         141.9343  137.9716  161.1648 C.3     1  UNL1        0.0722
     30 C         141.7333  137.6452  162.6150 C.3     1  UNL1        0.0173
     31 C         140.1891  137.7064  164.7035 C.3     1  UNL1        0.0000
     32 C         140.3589  137.7022  163.2131 C.3     1  UNL1        0.0014
     33 C         141.3947  140.3336  160.2267 C.3     1  UNL1        0.0722
     34 C         139.9344  140.1683  160.5271 C.3     1  UNL1        0.0173
     35 C         139.3103  140.9305  161.6583 C.3     1  UNL1        0.0014
     36 C         138.4880  142.1527  161.3757 C.3     1  UNL1        0.0000
@<TRIPOS>BOND
     1    31    32    1
     2    32    30    1
     3    30    29    1
     4    29    28    1
     5    28    33    1
     6    33    34    1
     7    34    35    1
     8    35    36    1
     9    28    27    1
    10    27    24    1
    11    24    25    1
    12    24     1    1
    13     1     2   ar
    14     2     3   ar
    15     3     4    1
    16     3     5   ar
    17     5     6   ar
    18     6     7   ar
    19     7     8    1
    20     8     9   ar
    21     9    10   ar
    22    10    11   ar
    23    11    12    1
    24    11    13   ar
    25    13    14   ar
    26    14    15    1
    27    15    16    2
    28    16    17    1
    29    17    18   ar
    30    18    19   ar
    31    19    20   ar
    32    20    21    1
    33    20    22   ar
    34    22    23   ar
    35     7     1   ar
    36    14     8   ar
    37    23    17   ar
    38    15     6    1
    39    25    26    1
@<TRIPOS>MOLECULE
*****
 36 39 0 0 0
SMALL
GASTEIGER

@<TRIPOS>ATOM
      1 C         139.2313  139.2524  163.3014 C.ar    1  UNL1        0.0064
      2 C         138.3763  138.8269  164.4581 C.ar    1  UNL1        0.0095
      3 C         138.7857  139.1703  165.8597 C.ar    1  UNL1        0.0574
      4 CL        137.9307  138.7448  167.0164 Cl      1  UNL1       -0.0823
      5 C         140.0501  139.9392  166.1046 C.ar    1  UNL1        0.0114
      6 C         140.9051  140.3647  164.9478 C.ar    1  UNL1        0.0006
      7 C         140.4957  140.0213  163.5463 C.ar    1  UNL1       -0.0016
      8 C         141.5329  140.5710  162.6125 C.ar    1  UNL1       -0.0002
      9 C         141.6566  140.5378  161.1180 C.ar    1  UNL1        0.0009
     10 C         142.8307  141.1877  160.4479 C.ar    1  UNL1        0.0114
     11 C         143.8812  141.8709  161.2724 C.ar    1  UNL1        0.0577
     12 CL        145.0553  142.5208  160.6023 Cl      1  UNL1       -0.0822
     13 C         143.7575  141.9042  162.7669 C.ar    1  UNL1        0.0114
     14 C         142.5834  141.2542  163.4369 C.ar    1  UNL1        0.0008
     15 C         142.1954  141.1267  164.8803 C.2     1  UNL1        0.0000
     16 C         142.9629  141.6665  166.0505 C.2     1  UNL1        0.0000
     17 C         142.4484  141.4603  167.4445 C.ar    1  UNL1        0.0001
     18 C         142.8360  140.2318  168.2129 C.ar    1  UNL1        0.0009
     19 C         142.3215  140.0256  169.6067 C.ar    1  UNL1        0.0114
     20 C         141.4194  141.0479  170.2321 C.ar    1  UNL1        0.0577
     21 CL        140.9049  140.8417  171.6259 Cl      1  UNL1       -0.0822
     22 C         141.0317  142.2764  169.4636 C.ar    1  UNL1        0.0114
     23 C         141.5463  142.4826  168.0698 C.ar    1  UNL1        0.0009
     24 C         138.8218  138.9089  161.8998 C.3     1  UNL1        0.1486
     25 O         139.3492  137.6652  161.2479 O.3     1  UNL1       -0.3786
     26 H         139.9367  137.2012  161.8646 H       1  UNL1        0.2108
     27 C         137.8850  139.8092  161.1502 C.3     1  UNL1        0.1063
     28 N         137.7477  141.2485  161.5498 N.3     1  UNL1       -0.2704
     29 C         138.1350  142.3337  160.5894 C.3     1  UNL1        0.0722
     30 C         139.5485  142.8344  160.5537 C.3     1  UNL1        0.0173
     31 C         141.2742  144.5131  161.5304 C.3     1  UNL1        0.0000
     32 C         139.8755  144.1963  161.0906 C.3     1  UNL1        0.0014
     33 C         137.2233  141.6026  162.9098 C.3     1  UNL1        0.0722
     34 C         137.5788  142.9208  163.5309 C.3     1  UNL1        0.0173
     35 C         138.4058  142.9620  164.7817 C.3     1  UNL1        0.0014
     36 C         139.6260  143.8319  164.8457 C.3     1  UNL1        0.0000
@<TRIPOS>BOND
     1    31    32    1
     2    32    30    1
     3    30    29    1
     4    29    28    1
     5    28    33    1
     6    33    34    1
     7    34    35    1
     8    35    36    1
     9    28    27    1
    10    27    24    1
    11    24    25    1
    12    24     1    1
    13     1     2   ar
    14     2     3   ar
    15     3     4    1
    16     3     5   ar
    17     5     6   ar
    18     6     7   ar
    19     7     8    1
    20     8     9   ar
    21     9    10   ar
    22    10    11   ar
    23    11    12    1
    24    11    13   ar
    25    13    14   ar
    26    14    15    1
    27    15    16    2
    28    16    17    1
    29    17    18   ar
    30    18    19   ar
    31    19    20   ar
    32    20    21    1
    33    20    22   ar
    34    22    23   ar
    35     7     1   ar
    36    14     8   ar
    37    23    17   ar
    38    15     6    1
    39    25    26    1
@<TRIPOS>MOLECULE
*****
 36 39 0 0 0
SMALL
GASTEIGER

@<TRIPOS>ATOM
      1 C         139.3522  139.2124  163.6393 C.ar    1  UNL1        0.0064
      2 C         138.4741  138.7972  164.7824 C.ar    1  UNL1        0.0095
      3 C         138.8437  139.1727  166.1868 C.ar    1  UNL1        0.0574
      4 CL        137.9656  138.7575  167.3299 Cl      1  UNL1       -0.0823
      5 C         140.0913  139.9633  166.4482 C.ar    1  UNL1        0.0114
      6 C         140.9693  140.3785  165.3051 C.ar    1  UNL1        0.0006
      7 C         140.5998  140.0030  163.9006 C.ar    1  UNL1       -0.0016
      8 C         141.6528  140.5491  162.9825 C.ar    1  UNL1       -0.0002
      9 C         141.8144  140.4893  161.4924 C.ar    1  UNL1        0.0009
     10 C         142.9962  141.1424  160.8394 C.ar    1  UNL1        0.0114
     11 C         144.0166  141.8554  161.6764 C.ar    1  UNL1        0.0577
     12 CL        145.1985  142.5086  161.0233 Cl      1  UNL1       -0.0822
     13 C         143.8550  141.9153  163.1664 C.ar    1  UNL1        0.0114
     14 C         142.6731  141.2621  163.8195 C.ar    1  UNL1        0.0008
     15 C         142.2507  141.1567  165.2549 C.2     1  UNL1        0.0000
     16 C         142.9814  141.7289  166.4333 C.2     1  UNL1        0.0000
     17 C         142.4348  141.5421  167.8177 C.ar    1  UNL1        0.0001
     18 C         141.4951  142.5580  168.3964 C.ar    1  UNL1        0.0009
     19 C         140.9486  142.3711  169.7807 C.ar    1  UNL1        0.0114
     20 C         141.3418  141.1685  170.5863 C.ar    1  UNL1        0.0577
     21 CL        140.7952  140.9817  171.9706 Cl      1  UNL1       -0.0822
     22 C         142.2815  140.1526  170.0076 C.ar    1  UNL1        0.0114
     23 C         142.8280  140.3395  168.6233 C.ar    1  UNL1        0.0009
     24 C         138.9826  138.8369  162.2348 C.3     1  UNL1        0.1486
     25 O         139.6035  137.6319  161.5926 O.3     1  UNL1       -0.3786
     26 H         140.2160  137.2123  162.2169 H       1  UNL1        0.2108
     27 C         137.9922  139.6664  161.4726 C.3     1  UNL1        0.1063
     28 N         138.0590  141.1635  161.5394 N.3     1  UNL1       -0.2704
     29 C         137.2594  141.9046  162.5696 C.3     1  UNL1        0.0722
     30 C         137.8186  142.1129  163.9459 C.3     1  UNL1        0.0173
     31 C         139.3673  143.7520  165.2362 C.3     1  UNL1        0.0000
     32 C         138.1297  143.4990  164.4272 C.3     1  UNL1        0.0014
     33 C         138.9254  141.9193  160.5760 C.3     1  UNL1        0.0722
     34 C         139.2317  143.3673  160.8197 C.3     1  UNL1        0.0173
     35 C         140.4222  143.7533  161.6466 C.3     1  UNL1        0.0014
     36 C         141.4956  144.6196  161.0573 C.3     1  UNL1        0.0000
@<TRIPOS>BOND
     1    31    32    1
     2    32    30    1
     3    30    29    1
     4    29    28    1
     5    28    33    1
     6    33    34    1
     7    34    35    1
     8    35    36    1
     9    28    27    1
    10    27    24    1
    11    24    25    1
    12    24     1    1
    13     1     2   ar
    14     2     3   ar
    15     3     4    1
    16     3     5   ar
    17     5     6   ar
    18     6     7   ar
    19     7     8    1
    20     8     9   ar
    21     9    10   ar
    22    10    11   ar
    23    11    12    1
    24    11    13   ar
    25    13    14   ar
    26    14    15    1
    27    15    16    2
    28    16    17    1
    29    17    18   ar
    30    18    19   ar
    31    19    20   ar
    32    20    21    1
    33    20    22   ar
    34    22    23   ar
    35     7     1   ar
    36    14     8   ar
    37    23    17   ar
    38    15     6    1
    39    25    26    1
@<TRIPOS>MOLECULE
*****
 36 39 0 0 0
SMALL
GASTEIGER

@<TRIPOS>ATOM
      1 C         143.3285  142.1584  162.5467 C.ar    1  UNL1        0.0064
      2 C         144.2377  143.0579  163.3305 C.ar    1  UNL1        0.0095
      3 C         144.0745  143.1788  164.8166 C.ar    1  UNL1        0.0574
      4 CL        144.9837  144.0783  165.6004 Cl      1  UNL1       -0.0823
      5 C         143.0020  142.4001  165.5191 C.ar    1  UNL1        0.0114
      6 C         142.0928  141.5006  164.7353 C.ar    1  UNL1        0.0006
      7 C         142.2560  141.3798  163.2492 C.ar    1  UNL1       -0.0016
      8 C         141.2183  140.4209  162.7453 C.ar    1  UNL1       -0.0002
      9 C         140.9022  139.9165  161.3685 C.ar    1  UNL1        0.0009
     10 C         139.7814  138.9403  161.1665 C.ar    1  UNL1        0.0114
     11 C         138.9767  138.4686  162.3413 C.ar    1  UNL1        0.0577
     12 CL        137.8559  137.4924  162.1392 Cl      1  UNL1       -0.0822
     13 C         139.2929  138.9731  163.7180 C.ar    1  UNL1        0.0114
     14 C         140.4137  139.9492  163.9200 C.ar    1  UNL1        0.0008
     15 C         140.9541  140.6165  165.1499 C.2     1  UNL1        0.0000
     16 C         140.4453  140.4320  166.5489 C.2     1  UNL1        0.0000
     17 C         141.0895  141.1702  167.6848 C.ar    1  UNL1        0.0001
     18 C         142.3040  140.6009  168.3564 C.ar    1  UNL1        0.0009
     19 C         142.9481  141.3390  169.4922 C.ar    1  UNL1        0.0114
     20 C         142.3779  142.6464  169.9565 C.ar    1  UNL1        0.0577
     21 CL        143.0222  143.3845  171.0923 Cl      1  UNL1       -0.0822
     22 C         141.1635  143.2157  169.2849 C.ar    1  UNL1        0.0114
     23 C         140.5193  142.4776  168.1491 C.ar    1  UNL1        0.0009
     24 C         143.4918  142.0375  161.0605 C.3     1  UNL1        0.1486
     25 O         144.2206  140.8625  160.4792 O.3     1  UNL1       -0.3786
     26 H         144.5192  140.2806  161.1955 H       1  UNL1        0.2108
     27 C         142.9263  143.0919  160.1557 C.3     1  UNL1        0.1063
     28 N         141.5474  143.6292  160.4004 N.3     1  UNL1       -0.2704
     29 C         140.3476  142.8458  159.9569 C.3     1  UNL1        0.0722
     30 C         138.9873  143.1946  160.4841 C.3     1  UNL1        0.0173
     31 C         137.7439  142.2154  162.5445 C.3     1  UNL1        0.0000
     32 C         138.1246  142.1309  161.0961 C.3     1  UNL1        0.0014
     33 C         141.3683  144.9499  161.0886 C.3     1  UNL1        0.0722
     34 C         141.3655  145.0207  162.5869 C.3     1  UNL1        0.0173
     35 C         140.0652  145.0617  163.3335 C.3     1  UNL1        0.0014
     36 C         139.9332  144.3540  164.6494 C.3     1  UNL1        0.0000
@<TRIPOS>BOND
     1    31    32    1
     2    32    30    1
     3    30    29    1
     4    29    28    1
     5    28    33    1
     6    33    34    1
     7    34    35    1
     8    35    36    1
     9    28    27    1
    10    27    24    1
    11    24    25    1
    12    24     1    1
    13     1     2   ar
    14     2     3   ar
    15     3     4    1
    16     3     5   ar
    17     5     6   ar
    18     6     7   ar
    19     7     8    1
    20     8     9   ar
    21     9    10   ar
    22    10    11   ar
    23    11    12    1
    24    11    13   ar
    25    13    14   ar
    26    14    15    1
    27    15    16    2
    28    16    17    1
    29    17    18   ar
    30    18    19   ar
    31    19    20   ar
    32    20    21    1
    33    20    22   ar
    34    22    23   ar
    35     7     1   ar
    36    14     8   ar
    37    23    17   ar
    38    15     6    1
    39    25    26    1
@<TRIPOS>MOLECULE
*****
 36 39 0 0 0
SMALL
GASTEIGER

@<TRIPOS>ATOM
      1 C         140.5520  143.6166  162.4597 C.ar    1  UNL1        0.0064
      2 C         139.7788  144.5492  163.3442 C.ar    1  UNL1        0.0095
      3 C         139.6931  144.2862  164.8185 C.ar    1  UNL1        0.0574
      4 CL        138.9198  145.2187  165.7031 Cl      1  UNL1       -0.0823
      5 C         140.3808  143.0906  165.4082 C.ar    1  UNL1        0.0114
      6 C         141.1541  142.1581  164.5236 C.ar    1  UNL1        0.0006
      7 C         141.2397  142.4211  163.0494 C.ar    1  UNL1       -0.0016
      8 C         142.0683  141.3339  162.4319 C.ar    1  UNL1       -0.0002
      9 C         142.4896  141.0745  161.0158 C.ar    1  UNL1        0.0009
     10 C         143.3374  139.8801  160.6925 C.ar    1  UNL1        0.0114
     11 C         143.7639  138.9451  161.7851 C.ar    1  UNL1        0.0577
     12 CL        144.6118  137.7506  161.4617 Cl      1  UNL1       -0.0822
     13 C         143.3427  139.2045  163.2011 C.ar    1  UNL1        0.0114
     14 C         142.4949  140.3989  163.5245 C.ar    1  UNL1        0.0008
     15 C         141.9298  140.9083  164.8173 C.2     1  UNL1        0.0000
     16 C         142.1090  140.2784  166.1668 C.2     1  UNL1        0.0000
     17 C         141.4810  140.9051  167.3764 C.ar    1  UNL1        0.0001
     18 C         140.2032  140.3489  167.9312 C.ar    1  UNL1        0.0009
     19 C         139.5752  140.9756  169.1406 C.ar    1  UNL1        0.0114
     20 C         140.2250  142.1584  169.7954 C.ar    1  UNL1        0.0577
     21 CL        139.5970  142.7850  171.0049 Cl      1  UNL1       -0.0822
     22 C         141.5029  142.7146  169.2406 C.ar    1  UNL1        0.0114
     23 C         142.1308  142.0879  168.0311 C.ar    1  UNL1        0.0009
     24 C         140.6376  143.8797  160.9853 C.3     1  UNL1        0.1486
     25 O         141.7950  144.6539  160.4276 O.3     1  UNL1       -0.3786
     26 H         142.3916  144.9080  161.1490 H       1  UNL1        0.2108
     27 C         139.5658  143.3686  160.0688 C.3     1  UNL1        0.1063
     28 N         138.6756  142.2446  160.5095 N.3     1  UNL1       -0.2704
     29 C         138.6389  140.9658  159.7264 C.3     1  UNL1        0.0722
     30 C         139.6301  139.8785  160.0187 C.3     1  UNL1        0.0173
     31 C         140.1353  138.0166  161.7588 C.3     1  UNL1        0.0000
     32 C         139.2012  138.6560  160.7746 C.3     1  UNL1        0.0014
     33 C         137.8221  142.3994  161.7333 C.3     1  UNL1        0.0722
     34 C         137.4299  141.1917  162.5318 C.3     1  UNL1        0.0173
     35 C         137.8133  141.0921  163.9785 C.3     1  UNL1        0.0014
     36 C         138.3786  139.8118  164.5182 C.3     1  UNL1        0.0000
@<TRIPOS>BOND
     1    31    32    1
     2    32    30    1
     3    30    29    1
     4    29    28    1
     5    28    33    1
     6    33    34    1
     7    34    35    1
     8    35    36    1
     9    28    27    1
    10    27    24    1
    11    24    25    1
    12    24     1    1
    13     1     2   ar
    14     2     3   ar
    15     3     4    1
    16     3     5   ar
    17     5     6   ar
    18     6     7   ar
    19     7     8    1
    20     8     9   ar
    21     9    10   ar
    22    10    11   ar
    23    11    12    1
    24    11    13   ar
    25    13    14   ar
    26    14    15    1
    27    15    16    2
    28    16    17    1
    29    17    18   ar
    30    18    19   ar
    31    19    20   ar
    32    20    21    1
    33    20    22   ar
    34    22    23   ar
    35     7     1   ar
    36    14     8   ar
    37    23    17   ar
    38    15     6    1
    39    25    26    1
@<TRIPOS>MOLECULE
*****
 36 39 0 0 0
SMALL
GASTEIGER

@<TRIPOS>ATOM
      1 C         139.0737  142.3435  162.1572 C.ar    1  UNL1        0.0064
      2 C         138.2439  143.2427  163.0249 C.ar    1  UNL1        0.0095
      3 C         138.4321  143.2316  164.5130 C.ar    1  UNL1        0.0574
      4 CL        137.6023  144.1307  165.3807 Cl      1  UNL1       -0.0823
      5 C         139.4502  142.3213  165.1334 C.ar    1  UNL1        0.0114
      6 C         140.2801  141.4222  164.2656 C.ar    1  UNL1        0.0006
      7 C         140.0918  141.4333  162.7776 C.ar    1  UNL1       -0.0016
      8 C         141.0483  140.4432  162.1819 C.ar    1  UNL1       -0.0002
      9 C         141.3103  140.0285  160.7644 C.ar    1  UNL1        0.0009
     10 C         142.3516  138.9908  160.4668 C.ar    1  UNL1        0.0114
     11 C         143.1311  138.3677  161.5868 C.ar    1  UNL1        0.0577
     12 CL        144.1725  137.3299  161.2892 Cl      1  UNL1       -0.0822
     13 C         142.8691  138.7824  163.0043 C.ar    1  UNL1        0.0114
     14 C         141.8278  139.8202  163.3018 C.ar    1  UNL1        0.0008
     15 C         141.3530  140.4252  164.5896 C.2     1  UNL1        0.0000
     16 C         141.8617  140.0918  165.9608 C.2     1  UNL1        0.0000
     17 C         141.2877  140.7826  167.1623 C.ar    1  UNL1        0.0001
     18 C         140.1715  140.1426  167.9333 C.ar    1  UNL1        0.0009
     19 C         139.5975  140.8334  169.1347 C.ar    1  UNL1        0.0114
     20 C         140.1398  142.1640  169.5651 C.ar    1  UNL1        0.0577
     21 CL        139.5658  142.8547  170.7665 Cl      1  UNL1       -0.0822
     22 C         141.2561  142.8040  168.7941 C.ar    1  UNL1        0.0114
     23 C         141.8300  142.1132  167.5927 C.ar    1  UNL1        0.0009
     24 C         138.8854  142.3547  160.6690 C.3     1  UNL1        0.1486
     25 O         138.0858  141.2726  160.0062 O.3     1  UNL1       -0.3786
     26 H         137.7645  140.6506  160.6776 H       1  UNL1        0.2108
     27 C         139.4969  143.4480  159.8439 C.3     1  UNL1        0.1063
     28 N         140.8815  143.9354  160.1525 N.3     1  UNL1       -0.2704
     29 C         142.0688  143.0816  159.8191 C.3     1  UNL1        0.0722
     30 C         143.3669  143.2865  160.5425 C.3     1  UNL1        0.0173
     31 C         144.7302  142.0211  162.3563 C.3     1  UNL1        0.0000
     32 C         144.1877  142.1026  160.9602 C.3     1  UNL1        0.0014
     33 C         141.0788  145.2767  160.7945 C.3     1  UNL1        0.0722
     34 C         140.7736  145.4631  162.2512 C.3     1  UNL1        0.0173
     35 C         141.5979  144.7570  163.2867 C.3     1  UNL1        0.0014
     36 C         142.9835  145.2391  163.5989 C.3     1  UNL1        0.0000
@<TRIPOS>BOND
     1    31    32    1
     2    32    30    1
     3    30    29    1
     4    29    28    1
     5    28    33    1
     6    33    34    1
     7    34    35    1
     8    35    36    1
     9    28    27    1
    10    27    24    1
    11    24    25    1
    12    24     1    1
    13     1     2   ar
    14     2     3   ar
    15     3     4    1
    16     3     5   ar
    17     5     6   ar
    18     6     7   ar
    19     7     8    1
    20     8     9   ar
    21     9    10   ar
    22    10    11   ar
    23    11    12    1
    24    11    13   ar
    25    13    14   ar
    26    14    15    1
    27    15    16    2
    28    16    17    1
    29    17    18   ar
    30    18    19   ar
    31    19    20   ar
    32    20    21    1
    33    20    22   ar
    34    22    23   ar
    35     7     1   ar
    36    14     8   ar
    37    23    17   ar
    38    15     6    1
    39    25    26    1
@<TRIPOS>MOLECULE
*****
 36 39 0 0 0
SMALL
GASTEIGER

@<TRIPOS>ATOM
      1 C         139.7463  143.4808  162.5744 C.ar    1  UNL1        0.0064
      2 C         139.0466  144.4311  163.5004 C.ar    1  UNL1        0.0095
      3 C         139.0996  144.2093  164.9829 C.ar    1  UNL1        0.0574
      4 CL        138.3999  145.1596  165.9089 Cl      1  UNL1       -0.0823
      5 C         139.8521  143.0372  165.5395 C.ar    1  UNL1        0.0114
      6 C         140.5518  142.0869  164.6135 C.ar    1  UNL1        0.0006
      7 C         140.4989  142.3087  163.1310 C.ar    1  UNL1       -0.0016
      8 C         141.2800  141.2119  162.4700 C.ar    1  UNL1       -0.0002
      9 C         141.5726  140.9162  161.0289 C.ar    1  UNL1        0.0009
     10 C         142.4010  139.7207  160.6618 C.ar    1  UNL1        0.0114
     11 C         142.9366  138.8210  161.7359 C.ar    1  UNL1        0.0577
     12 CL        143.7650  137.6255  161.3688 Cl      1  UNL1       -0.0822
     13 C         142.6440  139.1168  163.1770 C.ar    1  UNL1        0.0114
     14 C         141.8156  140.3122  163.5440 C.ar    1  UNL1        0.0008
     15 C         141.3656  140.8530  164.8688 C.2     1  UNL1        0.0000
     16 C         141.6751  140.2634  166.2129 C.2     1  UNL1        0.0000
     17 C         141.1533  140.9185  167.4574 C.ar    1  UNL1        0.0001
     18 C         141.8366  142.1354  168.0073 C.ar    1  UNL1        0.0009
     19 C         141.3149  142.7904  169.2518 C.ar    1  UNL1        0.0114
     20 C         140.1099  142.2286  169.9463 C.ar    1  UNL1        0.0577
     21 CL        139.5882  142.8836  171.1908 Cl      1  UNL1       -0.0822
     22 C         139.4266  141.0117  169.3965 C.ar    1  UNL1        0.0114
     23 C         139.9484  140.3567  168.1520 C.ar    1  UNL1        0.0009
     24 C         139.6934  143.7027  161.0918 C.3     1  UNL1        0.1486
     25 O         138.6361  143.0272  160.2697 O.3     1  UNL1       -0.3786
     26 H         138.0733  142.4877  160.8468 H       1  UNL1        0.2108
     27 C         140.6978  144.6000  160.4314 C.3     1  UNL1        0.1063
     28 N         142.1529  144.2364  160.4473 N.3     1  UNL1       -0.2704
     29 C         142.8070  143.7060  159.2060 C.3     1  UNL1        0.0722
     30 C         142.3318  144.1568  157.8565 C.3     1  UNL1        0.0173
     31 C         140.7539  142.1116  157.5790 C.3     1  UNL1        0.0000
     32 C         141.5765  143.2094  156.9723 C.3     1  UNL1        0.0014
     33 C         142.9540  144.4033  161.7045 C.3     1  UNL1        0.0722
     34 C         144.0999  143.4789  161.9919 C.3     1  UNL1        0.0173
     35 C         144.4087  143.0843  163.4057 C.3     1  UNL1        0.0014
     36 C         143.7319  143.7863  164.5453 C.3     1  UNL1        0.0000
@<TRIPOS>BOND
     1    31    32    1
     2    32    30    1
     3    30    29    1
     4    29    28    1
     5    28    33    1
     6    33    34    1
     7    34    35    1
     8    35    36    1
     9    28    27    1
    10    27    24    1
    11    24    25    1
    12    24     1    1
    13     1     2   ar
    14     2     3   ar
    15     3     4    1
    16     3     5   ar
    17     5     6   ar
    18     6     7   ar
    19     7     8    1
    20     8     9   ar
    21     9    10   ar
    22    10    11   ar
    23    11    12    1
    24    11    13   ar
    25    13    14   ar
    26    14    15    1
    27    15    16    2
    28    16    17    1
    29    17    18   ar
    30    18    19   ar
    31    19    20   ar
    32    20    21    1
    33    20    22   ar
    34    22    23   ar
    35     7     1   ar
    36    14     8   ar
    37    23    17   ar
    38    15     6    1
    39    25    26    1
@<TRIPOS>MOLECULE
*****
 36 39 0 0 0
SMALL
GASTEIGER

@<TRIPOS>ATOM
      1 C         139.6809  143.5418  162.7013 C.ar    1  UNL1        0.0064
      2 C         138.9762  144.4874  163.6284 C.ar    1  UNL1        0.0095
      3 C         139.0156  144.2542  165.1097 C.ar    1  UNL1        0.0574
      4 CL        138.3109  145.1998  166.0367 Cl      1  UNL1       -0.0823
      5 C         139.7596  143.0755  165.6638 C.ar    1  UNL1        0.0114
      6 C         140.4642  142.1300  164.7367 C.ar    1  UNL1        0.0006
      7 C         140.4249  142.3631  163.2555 C.ar    1  UNL1       -0.0016
      8 C         141.2081  141.2688  162.5930 C.ar    1  UNL1       -0.0002
      9 C         141.5123  140.9830  161.1523 C.ar    1  UNL1        0.0009
     10 C         142.3400  139.7877  160.7833 C.ar    1  UNL1        0.0114
     11 C         142.8635  138.8782  161.8551 C.ar    1  UNL1        0.0577
     12 CL        143.6912  137.6828  161.4862 Cl      1  UNL1       -0.0822
     13 C         142.5593  139.1640  163.2959 C.ar    1  UNL1        0.0114
     14 C         141.7316  140.3593  163.6648 C.ar    1  UNL1        0.0008
     15 C         141.2718  140.8915  164.9897 C.2     1  UNL1        0.0000
     16 C         141.5678  140.2908  166.3319 C.2     1  UNL1        0.0000
     17 C         141.0374  140.9382  167.5768 C.ar    1  UNL1        0.0001
     18 C         141.6615  142.2023  168.0891 C.ar    1  UNL1        0.0009
     19 C         141.1311  142.8496  169.3339 C.ar    1  UNL1        0.0114
     20 C         139.9766  142.2328  170.0665 C.ar    1  UNL1        0.0577
     21 CL        139.4462  142.8801  171.3113 Cl      1  UNL1       -0.0822
     22 C         139.3524  140.9686  169.5542 C.ar    1  UNL1        0.0114
     23 C         139.8829  140.3214  168.3094 C.ar    1  UNL1        0.0009
     24 C         139.6415  143.7750  161.2200 C.3     1  UNL1        0.1486
     25 O         138.6292  143.0602  160.3750 O.3     1  UNL1       -0.3786
     26 H         138.0824  142.4903  160.9382 H       1  UNL1        0.2108
     27 C         140.6144  144.7231  160.5840 C.3     1  UNL1        0.1063
     28 N         142.0287  144.2905  160.3339 N.3     1  UNL1       -0.2704
     29 C         142.9787  144.1312  161.4837 C.3     1  UNL1        0.0722
     30 C         142.8877  145.0516  162.6648 C.3     1  UNL1        0.0173
     31 C         144.0420  143.3530  164.2561 C.3     1  UNL1        0.0000
     32 C         143.1261  144.5225  164.0480 C.3     1  UNL1        0.0014
     33 C         142.4930  144.0170  158.9340 C.3     1  UNL1        0.0722
     34 C         143.5605  142.9933  158.6844 C.3     1  UNL1        0.0173
     35 C         143.2649  141.7932  157.8345 C.3     1  UNL1        0.0014
     36 C         144.3099  140.7344  157.6424 C.3     1  UNL1        0.0000
@<TRIPOS>BOND
     1    31    32    1
     2    32    30    1
     3    30    29    1
     4    29    28    1
     5    28    33    1
     6    33    34    1
     7    34    35    1
     8    35    36    1
     9    28    27    1
    10    27    24    1
    11    24    25    1
    12    24     1    1
    13     1     2   ar
    14     2     3   ar
    15     3     4    1
    16     3     5   ar
    17     5     6   ar
    18     6     7   ar
    19     7     8    1
    20     8     9   ar
    21     9    10   ar
    22    10    11   ar
    23    11    12    1
    24    11    13   ar
    25    13    14   ar
    26    14    15    1
    27    15    16    2
    28    16    17    1
    29    17    18   ar
    30    18    19   ar
    31    19    20   ar
    32    20    21    1
    33    20    22   ar
    34    22    23   ar
    35     7     1   ar
    36    14     8   ar
    37    23    17   ar
    38    15     6    1
    39    25    26    1
