@<TRIPOS>MOLECULE
*****
 35 38 0 0 0
SMALL
GASTEIGER

@<TRIPOS>ATOM
      1 C         139.8300  142.8264  164.8886 C.3     1  UNL1        0.0188
      2 C         140.6721  142.0146  165.8276 C.3     1  UNL1        0.0188
      3 C         140.2196  140.6484  166.2504 C.3     1  UNL1        0.0724
      4 N         138.9250  140.0940  165.7342 N.3     1  UNL1       -0.2691
      5 C         138.0828  140.9058  164.7951 C.3     1  UNL1        0.0724
      6 C         138.5353  142.2720  164.3723 C.3     1  UNL1        0.0188
      7 C         140.2825  144.1926  164.4658 C.3     1  UNL1        0.0721
      8 C         141.3463  144.9796  160.1648 C.3     1  UNL1        0.1687
      9 C         142.1350  143.9836  160.9623 C.3     1  UNL1        0.0609
     10 C         141.7803  143.7213  162.3960 C.3     1  UNL1        0.0758
     11 N         140.6371  144.4549  163.0322 N.3     1  UNL1       -0.2724
     12 C         139.8484  145.4509  162.2346 C.3     1  UNL1        0.0758
     13 C         140.2030  145.7133  160.8010 C.3     1  UNL1        0.0609
     14 O         141.7009  145.2420  158.7311 O.3     1  UNL1       -0.4794
     15 C         140.6263  142.5988  157.8043 C.3     1  UNL1        0.0351
     16 C         140.1000  143.8720  157.2111 C.ar    1  UNL1        0.0235
     17 C         140.6373  145.1936  157.6745 C.ar    1  UNL1        0.1352
     18 C         140.1110  146.4668  157.0813 C.ar    1  UNL1        0.0375
     19 C         139.0474  146.4184  156.0247 C.ar    1  UNL1        0.0153
     20 C         138.5101  145.0969  155.5613 C.ar    1  UNL1        0.0681
     21 CL        137.4465  145.0485  154.5046 Cl      1  UNL1       -0.0814
     22 C         139.0364  143.8236  156.1545 C.ar    1  UNL1        0.0671
     23 CL        138.4991  142.5020  155.6911 Cl      1  UNL1       -0.0816
     24 C         138.4725  138.7278  166.1570 C.3     1  UNL1        0.0987
     25 C         137.7086  138.5532  167.4361 C.2     1  UNL1        0.0652
     26 O         138.1538  139.2657  168.6787 O.co2   1  UNL1       -0.5478
     27 O         136.4997  137.6660  167.4725 O.co2   1  UNL1       -0.5478
     28 C         138.7838  137.5362  165.3007 C.3     1  UNL1        0.0480
     29 C         139.5923  137.7033  164.0483 C.ar    1  UNL1       -0.0203
     30 C         141.0895  137.6340  164.1072 C.ar    1  UNL1       -0.0019
     31 C         141.8979  137.8011  162.8549 C.ar    1  UNL1        0.0293
     32 C         141.2092  138.0374  161.5435 C.ar    1  UNL1        0.1401
     33 F         142.0176  138.2045  160.2911 F       1  UNL1       -0.2042
     34 C         139.7120  138.1067  161.4845 C.ar    1  UNL1        0.0293
     35 C         138.9035  137.9397  162.7369 C.ar    1  UNL1       -0.0019
@<TRIPOS>UNITY_ATOM_ATTR
26 1
charge -1
@<TRIPOS>BOND
     1    15    16    1
     2    16    17   ar
     3    17    14    1
     4    14     8    1
     5     8     9    1
     6     9    10    1
     7    10    11    1
     8    11     7    1
     9     7     1    1
    10     1     2    1
    11     2     3    1
    12     3     4    1
    13     4    24    1
    14    24    28    1
    15    28    29    1
    16    29    30   ar
    17    30    31   ar
    18    31    32   ar
    19    32    33    1
    20    32    34   ar
    21    34    35   ar
    22    24    25    1
    23    25    26   ar
    24    25    27   ar
    25     4     5    1
    26     5     6    1
    27    11    12    1
    28    12    13    1
    29    17    18   ar
    30    18    19   ar
    31    19    20   ar
    32    20    21    1
    33    20    22   ar
    34    22    23    1
    35    22    16   ar
    36    13     8    1
    37     6     1    1
    38    35    29   ar
@<TRIPOS>MOLECULE
*****
 35 38 0 0 0
SMALL
GASTEIGER

@<TRIPOS>ATOM
      1 C         139.7821  142.8781  164.8721 C.3     1  UNL1        0.0188
      2 C         138.4852  142.3172  164.3689 C.3     1  UNL1        0.0188
      3 C         138.0357  140.9556  164.8096 C.3     1  UNL1        0.0724
      4 N         138.8832  140.1550  165.7533 N.3     1  UNL1       -0.2691
      5 C         140.1802  140.7159  166.2565 C.3     1  UNL1        0.0724
      6 C         140.6297  142.0775  165.8159 C.3     1  UNL1        0.0188
      7 C         140.2316  144.2396  164.4315 C.3     1  UNL1        0.0721
      8 C         141.3950  144.9464  160.1423 C.3     1  UNL1        0.1687
      9 C         142.2346  144.0567  161.0103 C.3     1  UNL1        0.0609
     10 C         141.8468  143.8211  162.4401 C.3     1  UNL1        0.0758
     11 N         140.6194  144.4752  163.0018 N.3     1  UNL1       -0.2724
     12 C         139.7798  145.3649  162.1338 C.3     1  UNL1        0.0758
     13 C         140.1675  145.6005  160.7041 C.3     1  UNL1        0.0609
     14 O         141.7827  145.1820  158.7126 O.3     1  UNL1       -0.4794
     15 C         139.7439  146.7202  157.1387 C.3     1  UNL1        0.0351
     16 C         140.0036  145.2773  156.8217 C.ar    1  UNL1        0.0235
     17 C         141.0229  144.5082  157.6086 C.ar    1  UNL1        0.1352
     18 C         141.2826  143.0652  157.2916 C.ar    1  UNL1        0.0375
     19 C         140.5228  142.3914  156.1876 C.ar    1  UNL1        0.0153
     20 C         139.5034  143.1605  155.4007 C.ar    1  UNL1        0.0681
     21 CL        138.7436  142.4867  154.2967 Cl      1  UNL1       -0.0814
     22 C         139.2438  144.6035  155.7178 C.ar    1  UNL1        0.0671
     23 CL        138.2244  145.3726  154.9308 Cl      1  UNL1       -0.0816
     24 C         138.4337  138.7934  166.1939 C.3     1  UNL1        0.0987
     25 C         137.7701  138.6179  167.5277 C.2     1  UNL1        0.0652
     26 O         136.6267  137.6584  167.6761 O.co2   1  UNL1       -0.5478
     27 O         138.2500  139.4018  168.7131 O.co2   1  UNL1       -0.5478
     28 C         138.6477  137.6075  165.3009 C.3     1  UNL1        0.0480
     29 C         139.5117  137.7334  164.0811 C.ar    1  UNL1       -0.0203
     30 C         138.8843  137.9603  162.7378 C.ar    1  UNL1       -0.0019
     31 C         139.7482  138.0861  161.5180 C.ar    1  UNL1        0.0293
     32 C         141.2397  137.9851  161.6417 C.ar    1  UNL1        0.1401
     33 F         142.1037  138.1109  160.4220 F       1  UNL1       -0.2042
     34 C         141.8671  137.7582  162.9851 C.ar    1  UNL1        0.0293
     35 C         141.0032  137.6323  164.2048 C.ar    1  UNL1       -0.0019
@<TRIPOS>UNITY_ATOM_ATTR
26 1
charge -1
@<TRIPOS>BOND
     1    15    16    1
     2    16    17   ar
     3    17    14    1
     4    14     8    1
     5     8     9    1
     6     9    10    1
     7    10    11    1
     8    11     7    1
     9     7     1    1
    10     1     2    1
    11     2     3    1
    12     3     4    1
    13     4    24    1
    14    24    28    1
    15    28    29    1
    16    29    30   ar
    17    30    31   ar
    18    31    32   ar
    19    32    33    1
    20    32    34   ar
    21    34    35   ar
    22    24    25    1
    23    25    26   ar
    24    25    27   ar
    25     4     5    1
    26     5     6    1
    27    11    12    1
    28    12    13    1
    29    17    18   ar
    30    18    19   ar
    31    19    20   ar
    32    20    21    1
    33    20    22   ar
    34    22    23    1
    35    22    16   ar
    36    13     8    1
    37     6     1    1
    38    35    29   ar
@<TRIPOS>MOLECULE
*****
 35 38 0 0 0
SMALL
GASTEIGER

@<TRIPOS>ATOM
      1 C         143.8307  140.4291  164.8348 C.3     1  UNL1        0.0188
      2 C         143.5918  139.0970  165.4817 C.3     1  UNL1        0.0188
      3 C         142.4630  138.9275  166.4548 C.3     1  UNL1        0.0724
      4 N         141.5730  140.0900  166.7810 N.3     1  UNL1       -0.2691
      5 C         141.8118  141.4221  166.1340 C.3     1  UNL1        0.0724
      6 C         142.9406  141.5917  165.1609 C.3     1  UNL1        0.0188
      7 C         144.9595  140.5986  163.8616 C.3     1  UNL1        0.0721
      8 C         144.0878  141.4747  159.5347 C.3     1  UNL1        0.1687
      9 C         144.5600  142.5721  160.4417 C.3     1  UNL1        0.0609
     10 C         144.8506  142.2800  161.8841 C.3     1  UNL1        0.0758
     11 N         144.6689  140.8906  162.4194 N.3     1  UNL1       -0.2724
     12 C         144.1967  139.7932  161.5123 C.3     1  UNL1        0.0758
     13 C         143.9061  140.0852  160.0700 C.3     1  UNL1        0.0609
     14 O         143.7972  141.7667  158.0924 O.3     1  UNL1       -0.4794
     15 C         143.4636  140.2555  155.5224 C.3     1  UNL1        0.0351
     16 C         144.7412  140.9910  155.7995 C.ar    1  UNL1        0.0235
     17 C         144.9080  141.7465  157.0845 C.ar    1  UNL1        0.1352
     18 C         146.1856  142.4820  157.3617 C.ar    1  UNL1        0.0375
     19 C         147.2964  142.4619  156.3539 C.ar    1  UNL1        0.0153
     20 C         147.1295  141.7063  155.0689 C.ar    1  UNL1        0.0681
     21 CL        148.2403  141.6862  154.0610 Cl      1  UNL1       -0.0814
     22 C         145.8519  140.9709  154.7917 C.ar    1  UNL1        0.0671
     23 CL        145.6851  140.2153  153.5066 Cl      1  UNL1       -0.0816
     24 C         140.4441  139.9205  167.7541 C.3     1  UNL1        0.0987
     25 C         140.6945  140.0657  169.2260 C.2     1  UNL1        0.0652
     26 O         142.0632  140.4275  169.7218 O.co2   1  UNL1       -0.5478
     27 O         139.5762  139.8492  170.2019 O.co2   1  UNL1       -0.5478
     28 C         139.0649  139.6057  167.2555 C.3     1  UNL1        0.0480
     29 C         138.8348  139.3540  165.7947 C.ar    1  UNL1       -0.0203
     30 C         138.3337  140.4592  164.9130 C.ar    1  UNL1       -0.0019
     31 C         138.1036  140.2075  163.4523 C.ar    1  UNL1        0.0293
     32 C         138.3746  138.8506  162.8733 C.ar    1  UNL1        0.1401
     33 F         138.1445  138.5988  161.4126 F       1  UNL1       -0.2042
     34 C         138.8757  137.7454  163.7550 C.ar    1  UNL1        0.0293
     35 C         139.1058  137.9971  165.2157 C.ar    1  UNL1       -0.0019
@<TRIPOS>UNITY_ATOM_ATTR
26 1
charge -1
@<TRIPOS>BOND
     1    15    16    1
     2    16    17   ar
     3    17    14    1
     4    14     8    1
     5     8     9    1
     6     9    10    1
     7    10    11    1
     8    11     7    1
     9     7     1    1
    10     1     2    1
    11     2     3    1
    12     3     4    1
    13     4    24    1
    14    24    28    1
    15    28    29    1
    16    29    30   ar
    17    30    31   ar
    18    31    32   ar
    19    32    33    1
    20    32    34   ar
    21    34    35   ar
    22    24    25    1
    23    25    26   ar
    24    25    27   ar
    25     4     5    1
    26     5     6    1
    27    11    12    1
    28    12    13    1
    29    17    18   ar
    30    18    19   ar
    31    19    20   ar
    32    20    21    1
    33    20    22   ar
    34    22    23    1
    35    22    16   ar
    36    13     8    1
    37     6     1    1
    38    35    29   ar
@<TRIPOS>MOLECULE
*****
 35 38 0 0 0
SMALL
GASTEIGER

@<TRIPOS>ATOM
      1 C         142.8669  141.7975  165.8618 C.3     1  UNL1        0.0188
      2 C         141.7195  142.6606  166.2959 C.3     1  UNL1        0.0188
      3 C         140.5715  142.0585  167.0505 C.3     1  UNL1        0.0724
      4 N         140.5707  140.5931  167.3709 N.3     1  UNL1       -0.2691
      5 C         141.7181  139.7299  166.9368 C.3     1  UNL1        0.0724
      6 C         142.8662  140.3320  166.1823 C.3     1  UNL1        0.0188
      7 C         144.0149  142.3996  165.1073 C.3     1  UNL1        0.0721
      8 C         143.6483  143.1664  160.6883 C.3     1  UNL1        0.1687
      9 C         144.7936  142.3541  161.2161 C.3     1  UNL1        0.0609
     10 C         144.9158  142.0985  162.6891 C.3     1  UNL1        0.0758
     11 N         143.8927  142.6552  163.6343 N.3     1  UNL1       -0.2724
     12 C         142.7474  143.4675  163.1066 C.3     1  UNL1        0.0758
     13 C         142.6252  143.7231  161.6336 C.3     1  UNL1        0.0609
     14 O         143.5261  143.4221  159.2154 O.3     1  UNL1       -0.4794
     15 C         141.6454  141.1920  158.5153 C.3     1  UNL1        0.0351
     16 C         143.0047  141.2529  157.8839 C.ar    1  UNL1        0.0235
     17 C         143.9450  142.3678  158.2339 C.ar    1  UNL1        0.1352
     18 C         145.3042  142.4287  157.6024 C.ar    1  UNL1        0.0375
     19 C         145.7232  141.3746  156.6210 C.ar    1  UNL1        0.0153
     20 C         144.7829  140.2596  156.2710 C.ar    1  UNL1        0.0681
     21 CL        145.2018  139.2054  155.2895 Cl      1  UNL1       -0.0814
     22 C         143.4236  140.1987  156.9024 C.ar    1  UNL1        0.0671
     23 CL        142.4833  139.0837  156.5524 Cl      1  UNL1       -0.0816
     24 C         139.4226  139.9910  168.1254 C.3     1  UNL1        0.0987
     25 C         139.3094  140.1953  169.6072 C.2     1  UNL1        0.0652
     26 O         138.0236  139.8791  170.3118 O.co2   1  UNL1       -0.5478
     27 O         140.4821  140.7158  170.3843 O.co2   1  UNL1       -0.5478
     28 C         138.3878  139.1846  167.3983 C.3     1  UNL1        0.0480
     29 C         138.4319  139.0817  165.9025 C.ar    1  UNL1       -0.0203
     30 C         138.8626  137.8010  165.2512 C.ar    1  UNL1       -0.0019
     31 C         138.9067  137.6981  163.7553 C.ar    1  UNL1        0.0293
     32 C         138.5201  138.8760  162.9108 C.ar    1  UNL1        0.1401
     33 F         138.5641  138.7731  161.4150 F       1  UNL1       -0.2042
     34 C         138.0894  140.1567  163.5622 C.ar    1  UNL1        0.0293
     35 C         138.0453  140.2595  165.0580 C.ar    1  UNL1       -0.0019
@<TRIPOS>UNITY_ATOM_ATTR
26 1
charge -1
@<TRIPOS>BOND
     1    15    16    1
     2    16    17   ar
     3    17    14    1
     4    14     8    1
     5     8     9    1
     6     9    10    1
     7    10    11    1
     8    11     7    1
     9     7     1    1
    10     1     2    1
    11     2     3    1
    12     3     4    1
    13     4    24    1
    14    24    28    1
    15    28    29    1
    16    29    30   ar
    17    30    31   ar
    18    31    32   ar
    19    32    33    1
    20    32    34   ar
    21    34    35   ar
    22    24    25    1
    23    25    26   ar
    24    25    27   ar
    25     4     5    1
    26     5     6    1
    27    11    12    1
    28    12    13    1
    29    17    18   ar
    30    18    19   ar
    31    19    20   ar
    32    20    21    1
    33    20    22   ar
    34    22    23    1
    35    22    16   ar
    36    13     8    1
    37     6     1    1
    38    35    29   ar
@<TRIPOS>MOLECULE
*****
 35 38 0 0 0
SMALL
GASTEIGER

@<TRIPOS>ATOM
      1 C         142.8895  141.8148  165.8843 C.3     1  UNL1        0.0188
      2 C         141.7017  142.6643  166.2270 C.3     1  UNL1        0.0188
      3 C         140.5428  142.0686  166.9700 C.3     1  UNL1        0.0724
      4 N         140.5716  140.6233  167.3702 N.3     1  UNL1       -0.2691
      5 C         141.7594  139.7736  167.0275 C.3     1  UNL1        0.0724
      6 C         142.9183  140.3694  166.2845 C.3     1  UNL1        0.0188
      7 C         144.0484  142.4106  165.1413 C.3     1  UNL1        0.0721
      8 C         143.8498  142.8872  160.6711 C.3     1  UNL1        0.1687
      9 C         142.9154  143.6642  161.5504 C.3     1  UNL1        0.0609
     10 C         142.9816  143.5053  163.0406 C.3     1  UNL1        0.0758
     11 N         143.9822  142.5694  163.6513 N.3     1  UNL1       -0.2724
     12 C         144.9166  141.7924  162.7719 C.3     1  UNL1        0.0758
     13 C         144.8504  141.9513  161.2819 C.3     1  UNL1        0.0609
     14 O         143.7836  143.0461  159.1810 O.3     1  UNL1       -0.4794
     15 C         145.9643  142.3591  157.2387 C.3     1  UNL1        0.0351
     16 C         144.7428  141.4935  157.3318 C.ar    1  UNL1        0.0235
     17 C         143.6524  141.8370  158.3029 C.ar    1  UNL1        0.1352
     18 C         142.4309  140.9714  158.3960 C.ar    1  UNL1        0.0375
     19 C         142.2997  139.7624  157.5180 C.ar    1  UNL1        0.0153
     20 C         143.3900  139.4189  156.5468 C.ar    1  UNL1        0.0681
     21 CL        143.2589  138.2098  155.6687 Cl      1  UNL1       -0.0814
     22 C         144.6116  140.2845  156.4537 C.ar    1  UNL1        0.0671
     23 CL        145.7019  139.9410  155.4825 Cl      1  UNL1       -0.0816
     24 C         139.4127  140.0275  168.1132 C.3     1  UNL1        0.0987
     25 C         139.2453  140.2940  169.5799 C.2     1  UNL1        0.0652
     26 O         140.3209  141.0126  170.3392 O.co2   1  UNL1       -0.5478
     27 O         138.0022  139.8417  170.2871 O.co2   1  UNL1       -0.5478
     28 C         138.4213  139.1653  167.3896 C.3     1  UNL1        0.0480
     29 C         138.4520  139.0819  165.8922 C.ar    1  UNL1       -0.0203
     30 C         138.9025  137.8187  165.2205 C.ar    1  UNL1       -0.0019
     31 C         138.9332  137.7353  163.7231 C.ar    1  UNL1        0.0293
     32 C         138.5134  138.9151  162.8975 C.ar    1  UNL1        0.1401
     33 F         138.5441  138.8317  161.4001 F       1  UNL1       -0.2042
     34 C         138.0629  140.1784  163.5692 C.ar    1  UNL1        0.0293
     35 C         138.0322  140.2618  165.0666 C.ar    1  UNL1       -0.0019
@<TRIPOS>UNITY_ATOM_ATTR
26 1
charge -1
@<TRIPOS>BOND
     1    15    16    1
     2    16    17   ar
     3    17    14    1
     4    14     8    1
     5     8     9    1
     6     9    10    1
     7    10    11    1
     8    11     7    1
     9     7     1    1
    10     1     2    1
    11     2     3    1
    12     3     4    1
    13     4    24    1
    14    24    28    1
    15    28    29    1
    16    29    30   ar
    17    30    31   ar
    18    31    32   ar
    19    32    33    1
    20    32    34   ar
    21    34    35   ar
    22    24    25    1
    23    25    26   ar
    24    25    27   ar
    25     4     5    1
    26     5     6    1
    27    11    12    1
    28    12    13    1
    29    17    18   ar
    30    18    19   ar
    31    19    20   ar
    32    20    21    1
    33    20    22   ar
    34    22    23    1
    35    22    16   ar
    36    13     8    1
    37     6     1    1
    38    35    29   ar
@<TRIPOS>MOLECULE
*****
 35 38 0 0 0
SMALL
GASTEIGER

@<TRIPOS>ATOM
      1 C         142.8459  141.8979  165.6982 C.3     1  UNL1        0.0188
      2 C         142.8886  140.4397  166.0474 C.3     1  UNL1        0.0188
      3 C         141.7676  139.8227  166.8300 C.3     1  UNL1        0.0724
      4 N         140.6038  140.6639  167.2636 N.3     1  UNL1       -0.2691
      5 C         140.5610  142.1221  166.9144 C.3     1  UNL1        0.0724
      6 C         141.6820  142.7391  166.1317 C.3     1  UNL1        0.0188
      7 C         143.9669  142.5149  164.9155 C.3     1  UNL1        0.0721
      8 C         143.4867  143.2613  160.5039 C.3     1  UNL1        0.1687
      9 C         142.6577  144.0306  161.4893 C.3     1  UNL1        0.0609
     10 C         142.8178  143.7817  162.9599 C.3     1  UNL1        0.0758
     11 N         143.8068  142.7637  163.4450 N.3     1  UNL1       -0.2724
     12 C         144.6358  141.9944  162.4596 C.3     1  UNL1        0.0758
     13 C         144.4757  142.2432  160.9891 C.3     1  UNL1        0.0609
     14 O         143.3266  143.5101  159.0334 O.3     1  UNL1       -0.4794
     15 C         142.1403  145.8623  157.5983 C.3     1  UNL1        0.0351
     16 C         141.3803  144.5716  157.6787 C.ar    1  UNL1        0.0235
     17 C         141.9734  143.3955  158.3963 C.ar    1  UNL1        0.1352
     18 C         141.2135  142.1048  158.4767 C.ar    1  UNL1        0.0375
     19 C         139.8604  141.9901  157.8396 C.ar    1  UNL1        0.0153
     20 C         139.2672  143.1662  157.1221 C.ar    1  UNL1        0.0681
     21 CL        137.9141  143.0517  156.4849 Cl      1  UNL1       -0.0814
     22 C         140.0272  144.4570  157.0416 C.ar    1  UNL1        0.0671
     23 CL        139.4340  145.6331  156.3240 Cl      1  UNL1       -0.0816
     24 C         139.4828  140.0469  168.0462 C.3     1  UNL1        0.0987
     25 C         139.3922  140.2668  169.5273 C.2     1  UNL1        0.0652
     26 O         138.1331  139.9143  170.2623 O.co2   1  UNL1       -0.5478
     27 O         140.5609  140.8393  170.2733 O.co2   1  UNL1       -0.5478
     28 C         138.4523  139.2099  167.3479 C.3     1  UNL1        0.0480
     29 C         138.4641  139.0993  165.8521 C.ar    1  UNL1       -0.0203
     30 C         138.0504  140.2697  165.0101 C.ar    1  UNL1       -0.0019
     31 C         138.0622  140.1590  163.5143 C.ar    1  UNL1        0.0293
     32 C         138.4878  138.8780  162.8603 C.ar    1  UNL1        0.1401
     33 F         138.4996  138.7673  161.3645 F       1  UNL1       -0.2042
     34 C         138.9016  137.7076  163.7022 C.ar    1  UNL1        0.0293
     35 C         138.8897  137.8182  165.1981 C.ar    1  UNL1       -0.0019
@<TRIPOS>UNITY_ATOM_ATTR
26 1
charge -1
@<TRIPOS>BOND
     1    15    16    1
     2    16    17   ar
     3    17    14    1
     4    14     8    1
     5     8     9    1
     6     9    10    1
     7    10    11    1
     8    11     7    1
     9     7     1    1
    10     1     2    1
    11     2     3    1
    12     3     4    1
    13     4    24    1
    14    24    28    1
    15    28    29    1
    16    29    30   ar
    17    30    31   ar
    18    31    32   ar
    19    32    33    1
    20    32    34   ar
    21    34    35   ar
    22    24    25    1
    23    25    26   ar
    24    25    27   ar
    25     4     5    1
    26     5     6    1
    27    11    12    1
    28    12    13    1
    29    17    18   ar
    30    18    19   ar
    31    19    20   ar
    32    20    21    1
    33    20    22   ar
    34    22    23    1
    35    22    16   ar
    36    13     8    1
    37     6     1    1
    38    35    29   ar
@<TRIPOS>MOLECULE
*****
 35 38 0 0 0
SMALL
GASTEIGER

@<TRIPOS>ATOM
      1 C         143.2862  140.3540  164.3529 C.3     1  UNL1        0.0188
      2 C         142.9966  139.0092  164.9509 C.3     1  UNL1        0.0188
      3 C         141.7740  138.8123  165.7974 C.3     1  UNL1        0.0724
      4 N         140.8410  139.9602  166.0459 N.3     1  UNL1       -0.2691
      5 C         141.1306  141.3051  165.4479 C.3     1  UNL1        0.0724
      6 C         142.3531  141.5020  164.6014 C.3     1  UNL1        0.0188
      7 C         144.5088  140.5509  163.5064 C.3     1  UNL1        0.0721
      8 C         144.0848  141.5834  159.1471 C.3     1  UNL1        0.1687
      9 C         144.4792  142.6422  160.1337 C.3     1  UNL1        0.0609
     10 C         144.6205  142.2980  161.5869 C.3     1  UNL1        0.0758
     11 N         144.3674  140.8950  162.0533 N.3     1  UNL1       -0.2724
     12 C         143.9731  139.8362  161.0667 C.3     1  UNL1        0.0758
     13 C         143.8317  140.1804  159.6136 C.3     1  UNL1        0.0609
     14 O         143.9435  141.9275  157.6940 O.3     1  UNL1       -0.4794
     15 C         143.7648  140.6359  154.9922 C.3     1  UNL1        0.0351
     16 C         145.0552  141.2520  155.4450 C.ar    1  UNL1        0.0235
     17 C         145.1446  141.8978  156.7959 C.ar    1  UNL1        0.1352
     18 C         146.4351  142.5140  157.2487 C.ar    1  UNL1        0.0375
     19 C         147.6362  142.4843  156.3507 C.ar    1  UNL1        0.0153
     20 C         147.5468  141.8384  154.9999 C.ar    1  UNL1        0.0681
     21 CL        148.7479  141.8087  154.1018 Cl      1  UNL1       -0.0814
     22 C         146.2563  141.2223  154.5470 C.ar    1  UNL1        0.0671
     23 CL        146.1670  140.5764  153.1961 Cl      1  UNL1       -0.0816
     24 C         139.6184  139.7633  166.8923 C.3     1  UNL1        0.0987
     25 C         138.3125  139.3991  166.2505 C.2     1  UNL1        0.0652
     26 O         137.3347  138.5276  166.9815 O.co2   1  UNL1       -0.5478
     27 O         137.9844  139.9065  164.8775 O.co2   1  UNL1       -0.5478
     28 C         139.7018  139.9305  168.3806 C.3     1  UNL1        0.0480
     29 C         140.7194  140.8583  168.9753 C.ar    1  UNL1       -0.0203
     30 C         142.0927  140.3532  169.3050 C.ar    1  UNL1       -0.0019
     31 C         143.1104  141.2810  169.8997 C.ar    1  UNL1        0.0293
     32 C         142.7547  142.7139  170.1646 C.ar    1  UNL1        0.1401
     33 F         143.7723  143.6417  170.7593 F       1  UNL1       -0.2042
     34 C         141.3813  143.2190  169.8349 C.ar    1  UNL1        0.0293
     35 C         140.3637  142.2912  169.2403 C.ar    1  UNL1       -0.0019
@<TRIPOS>UNITY_ATOM_ATTR
26 1
charge -1
@<TRIPOS>BOND
     1    15    16    1
     2    16    17   ar
     3    17    14    1
     4    14     8    1
     5     8     9    1
     6     9    10    1
     7    10    11    1
     8    11     7    1
     9     7     1    1
    10     1     2    1
    11     2     3    1
    12     3     4    1
    13     4    24    1
    14    24    28    1
    15    28    29    1
    16    29    30   ar
    17    30    31   ar
    18    31    32   ar
    19    32    33    1
    20    32    34   ar
    21    34    35   ar
    22    24    25    1
    23    25    26   ar
    24    25    27   ar
    25     4     5    1
    26     5     6    1
    27    11    12    1
    28    12    13    1
    29    17    18   ar
    30    18    19   ar
    31    19    20   ar
    32    20    21    1
    33    20    22   ar
    34    22    23    1
    35    22    16   ar
    36    13     8    1
    37     6     1    1
    38    35    29   ar
@<TRIPOS>MOLECULE
*****
 35 38 0 0 0
SMALL
GASTEIGER

@<TRIPOS>ATOM
      1 C         144.1407  140.5060  164.5605 C.3     1  UNL1        0.0188
      2 C         143.4088  141.6907  165.1177 C.3     1  UNL1        0.0188
      3 C         142.4082  141.5039  166.2195 C.3     1  UNL1        0.0724
      4 N         142.1395  140.1323  166.7640 N.3     1  UNL1       -0.2691
      5 C         142.8714  138.9475  166.2067 C.3     1  UNL1        0.0724
      6 C         143.8720  139.1343  165.1050 C.3     1  UNL1        0.0188
      7 C         145.1413  140.6928  163.4587 C.3     1  UNL1        0.0721
      8 C         143.7418  141.2372  159.2167 C.3     1  UNL1        0.1687
      9 C         143.6687  139.8855  159.8629 C.3     1  UNL1        0.0609
     10 C         144.1353  139.7041  161.2770 C.3     1  UNL1        0.0758
     11 N         144.6748  140.8743  162.0447 N.3     1  UNL1       -0.2724
     12 C         144.7479  142.2260  161.3985 C.3     1  UNL1        0.0758
     13 C         144.2814  142.4074  159.9845 C.3     1  UNL1        0.0609
     14 O         143.2753  141.4187  157.8027 O.3     1  UNL1       -0.4794
     15 C         142.6112  143.5658  155.8155 C.3     1  UNL1        0.0351
     16 C         143.9271  142.8503  155.7349 C.ar    1  UNL1        0.0235
     17 C         144.2591  141.7767  156.7284 C.ar    1  UNL1        0.1352
     18 C         145.5750  141.0612  156.6478 C.ar    1  UNL1        0.0375
     19 C         146.5588  141.4192  155.5736 C.ar    1  UNL1        0.0153
     20 C         146.2267  142.4927  154.5800 C.ar    1  UNL1        0.0681
     21 CL        147.2105  142.8507  153.5058 Cl      1  UNL1       -0.0814
     22 C         144.9109  143.2083  154.6607 C.ar    1  UNL1        0.0671
     23 CL        144.5788  144.2818  153.6670 Cl      1  UNL1       -0.0816
     24 C         141.1389  139.9455  167.8658 C.3     1  UNL1        0.0987
     25 C         141.6053  139.7697  169.2806 C.2     1  UNL1        0.0652
     26 O         143.0630  139.8951  169.6108 O.co2   1  UNL1       -0.5478
     27 O         140.6138  139.4684  170.3651 O.co2   1  UNL1       -0.5478
     28 C         139.6720  139.9345  167.5528 C.3     1  UNL1        0.0480
     29 C         139.2080  139.7364  166.1401 C.ar    1  UNL1       -0.0203
     30 C         138.7194  140.9073  165.3401 C.ar    1  UNL1       -0.0019
     31 C         138.2554  140.7093  163.9275 C.ar    1  UNL1        0.0293
     32 C         138.2799  139.3403  163.3149 C.ar    1  UNL1        0.1401
     33 F         137.8159  139.1422  161.9023 F       1  UNL1       -0.2042
     34 C         138.7685  138.1694  164.1150 C.ar    1  UNL1        0.0293
     35 C         139.2326  138.3674  165.5276 C.ar    1  UNL1       -0.0019
@<TRIPOS>UNITY_ATOM_ATTR
26 1
charge -1
@<TRIPOS>BOND
     1    15    16    1
     2    16    17   ar
     3    17    14    1
     4    14     8    1
     5     8     9    1
     6     9    10    1
     7    10    11    1
     8    11     7    1
     9     7     1    1
    10     1     2    1
    11     2     3    1
    12     3     4    1
    13     4    24    1
    14    24    28    1
    15    28    29    1
    16    29    30   ar
    17    30    31   ar
    18    31    32   ar
    19    32    33    1
    20    32    34   ar
    21    34    35   ar
    22    24    25    1
    23    25    26   ar
    24    25    27   ar
    25     4     5    1
    26     5     6    1
    27    11    12    1
    28    12    13    1
    29    17    18   ar
    30    18    19   ar
    31    19    20   ar
    32    20    21    1
    33    20    22   ar
    34    22    23    1
    35    22    16   ar
    36    13     8    1
    37     6     1    1
    38    35    29   ar
@<TRIPOS>MOLECULE
*****
 35 38 0 0 0
SMALL
GASTEIGER

@<TRIPOS>ATOM
      1 C         140.6025  138.0122  164.6527 C.3     1  UNL1        0.0188
      2 C         141.8377  138.4007  165.4098 C.3     1  UNL1        0.0188
      3 C         141.7361  139.3237  166.5878 C.3     1  UNL1        0.0724
      4 N         140.3993  139.8582  167.0087 N.3     1  UNL1       -0.2691
      5 C         139.1640  139.4697  166.2516 C.3     1  UNL1        0.0724
      6 C         139.2656  138.5467  165.0736 C.3     1  UNL1        0.0188
      7 C         140.7041  137.0891  163.4747 C.3     1  UNL1        0.0721
      8 C         141.3680  138.7669  159.3523 C.3     1  UNL1        0.1687
      9 C         142.5270  138.2310  160.1395 C.3     1  UNL1        0.0609
     10 C         142.3056  137.6718  161.5137 C.3     1  UNL1        0.0758
     11 N         140.9254  137.6484  162.1006 N.3     1  UNL1       -0.2724
     12 C         139.7665  138.1843  161.3133 C.3     1  UNL1        0.0758
     13 C         139.9878  138.7435  159.9392 C.3     1  UNL1        0.0609
     14 O         141.5893  139.3262  157.9782 O.3     1  UNL1       -0.4794
     15 C         143.4583  138.4217  155.8128 C.3     1  UNL1        0.0351
     16 C         143.7644  139.6628  156.5976 C.ar    1  UNL1        0.0235
     17 C         142.8299  140.1151  157.6803 C.ar    1  UNL1        0.1352
     18 C         143.1360  141.3562  158.4651 C.ar    1  UNL1        0.0375
     19 C         144.3765  142.1451  158.1673 C.ar    1  UNL1        0.0153
     20 C         145.3109  141.6928  157.0846 C.ar    1  UNL1        0.0681
     21 CL        146.5515  142.4817  156.7868 Cl      1  UNL1       -0.0814
     22 C         145.0049  140.4517  156.2998 C.ar    1  UNL1        0.0671
     23 CL        145.9394  139.9995  155.2171 Cl      1  UNL1       -0.0816
     24 C         140.2977  140.7812  168.1867 C.3     1  UNL1        0.0987
     25 C         139.8941  140.2440  169.5279 C.2     1  UNL1        0.0652
     26 O         140.7993  139.2985  170.2604 O.co2   1  UNL1       -0.5478
     27 O         138.5853  140.6523  170.1364 O.co2   1  UNL1       -0.5478
     28 C         140.5997  142.2414  168.0237 C.3     1  UNL1        0.0480
     29 C         140.7908  142.8192  166.6527 C.ar    1  UNL1       -0.0203
     30 C         142.1277  142.7253  165.9789 C.ar    1  UNL1       -0.0019
     31 C         142.3188  143.3031  164.6079 C.ar    1  UNL1        0.0293
     32 C         141.1731  143.9749  163.9107 C.ar    1  UNL1        0.1401
     33 F         141.3643  144.5527  162.5397 F       1  UNL1       -0.2042
     34 C         139.8363  144.0688  164.5845 C.ar    1  UNL1        0.0293
     35 C         139.6452  143.4910  165.9555 C.ar    1  UNL1       -0.0019
@<TRIPOS>UNITY_ATOM_ATTR
26 1
charge -1
@<TRIPOS>BOND
     1    15    16    1
     2    16    17   ar
     3    17    14    1
     4    14     8    1
     5     8     9    1
     6     9    10    1
     7    10    11    1
     8    11     7    1
     9     7     1    1
    10     1     2    1
    11     2     3    1
    12     3     4    1
    13     4    24    1
    14    24    28    1
    15    28    29    1
    16    29    30   ar
    17    30    31   ar
    18    31    32   ar
    19    32    33    1
    20    32    34   ar
    21    34    35   ar
    22    24    25    1
    23    25    26   ar
    24    25    27   ar
    25     4     5    1
    26     5     6    1
    27    11    12    1
    28    12    13    1
    29    17    18   ar
    30    18    19   ar
    31    19    20   ar
    32    20    21    1
    33    20    22   ar
    34    22    23    1
    35    22    16   ar
    36    13     8    1
    37     6     1    1
    38    35    29   ar
