@<TRIPOS>MOLECULE
*****
 27 30 0 0 0
SMALL
GASTEIGER

@<TRIPOS>ATOM
      1 C         142.4457  139.6350  167.0478 C.ar    1  UNL1        0.0842
      2 C         141.5800  140.8262  167.3337 C.ar    1  UNL1        0.0384
      3 C         141.2735  141.2076  168.7517 C.ar    1  UNL1        0.0887
      4 N         140.4079  142.3988  169.0375 N.ar    1  UNL1       -0.2238
      5 C         140.1014  142.7802  170.4554 C.ar    1  UNL1        0.1989
      6 N         140.6605  141.9703  171.5875 N.ar    1  UNL1       -0.2223
      7 C         141.5261  140.7792  171.3017 C.ar    1  UNL1        0.1049
      8 C         141.8326  140.3978  169.8837 C.ar    1  UNL1        0.0682
      9 C         142.6983  139.2066  169.5978 C.ar    1  UNL1        0.1313
     10 N         143.0048  138.8252  168.1799 N.ar    1  UNL1       -0.2308
     11 C         143.6719  138.1094  161.3760 C.3     1  UNL1        0.0310
     12 C         143.3654  138.4908  162.7940 C.ar    1  UNL1       -0.0218
     13 C         142.0921  138.0268  163.4369 C.ar    1  UNL1       -0.0042
     14 C         141.7855  138.4082  164.8548 C.ar    1  UNL1        0.0012
     15 C         142.7522  139.2536  165.6298 C.ar    1  UNL1        0.0177
     16 C         144.0255  139.7176  164.9869 C.ar    1  UNL1        0.0012
     17 C         144.3321  139.3362  163.5690 C.ar    1  UNL1       -0.0042
     18 N         143.2574  138.3968  170.7299 N.pl3   1  UNL1       -0.3180
     19 H         143.2449  138.7570  171.6460 H       1  UNL1        0.1482
     20 C         143.8355  137.0380  170.4662 C.3     1  UNL1        0.0895
     21 C         144.6848  136.3695  171.5063 C.3     1  UNL1        0.0353
     22 C         145.7356  137.1542  172.2343 C.3     1  UNL1        0.0045
     23 C         146.5849  136.4857  173.2744 C.3     1  UNL1        0.0172
     24 C         146.3833  135.0325  173.5866 C.3     1  UNL1        0.0686
     25 N         145.3324  134.2478  172.8587 N.3     1  UNL1       -0.2974
     26 C         144.4831  134.9163  171.8185 C.3     1  UNL1        0.0702
     27 H         144.6964  133.8802  173.5663 H       1  UNL1        0.1232
@<TRIPOS>BOND
     1    11    12    1
     2    12    13   ar
     3    13    14   ar
     4    14    15   ar
     5    15     1    1
     6     1     2   ar
     7     2     3   ar
     8     3     4   ar
     9     4     5   ar
    10     5     6   ar
    11     6     7   ar
    12     7     8   ar
    13     8     9   ar
    14     9    18    1
    15    18    20    1
    16    21    20    1
    17    21    22    1
    18    22    23    1
    19    23    24    1
    20    24    25    1
    21    25    26    1
    22     9    10   ar
    23    15    16   ar
    24    16    17   ar
    25    17    12   ar
    26    10     1   ar
    27     8     3   ar
    28    26    21    1
    29    18    19    1
    30    25    27    1
@<TRIPOS>MOLECULE
*****
 27 30 0 0 0
SMALL
GASTEIGER

@<TRIPOS>ATOM
      1 C         139.5574  140.1721  167.1390 C.ar    1  UNL1        0.0842
      2 C         140.6943  141.1293  167.3419 C.ar    1  UNL1        0.0384
      3 C         141.0796  141.5531  168.7283 C.ar    1  UNL1        0.0887
      4 N         142.2165  142.5103  168.9312 N.ar    1  UNL1       -0.2238
      5 C         142.6018  142.9341  170.3175 C.ar    1  UNL1        0.1989
      6 N         141.8502  142.4006  171.5010 N.ar    1  UNL1       -0.2223
      7 C         140.7134  141.4433  171.2981 C.ar    1  UNL1        0.1049
      8 C         140.3281  141.0196  169.9117 C.ar    1  UNL1        0.0682
      9 C         139.1912  140.0623  169.7088 C.ar    1  UNL1        0.1313
     10 N         138.8059  139.6385  168.3225 N.ar    1  UNL1       -0.2308
     11 C         138.0160  138.4770  161.5936 C.3     1  UNL1        0.0310
     12 C         138.4014  138.9008  162.9800 C.ar    1  UNL1       -0.0218
     13 C         138.9981  137.9051  163.9300 C.ar    1  UNL1       -0.0042
     14 C         139.3835  138.3288  165.3163 C.ar    1  UNL1        0.0012
     15 C         139.1721  139.7483  165.7527 C.ar    1  UNL1        0.0177
     16 C         138.5754  140.7440  164.8027 C.ar    1  UNL1        0.0012
     17 C         138.1900  140.3203  163.4164 C.ar    1  UNL1       -0.0042
     18 N         138.4396  139.5288  170.8922 N.pl3   1  UNL1       -0.3180
     19 H         138.8858  139.4564  171.7669 H       1  UNL1        0.1482
     20 C         137.0084  139.1055  170.7431 C.3     1  UNL1        0.0895
     21 C         136.3741  138.2269  171.7803 C.3     1  UNL1        0.0353
     22 C         137.1092  137.0258  172.2970 C.3     1  UNL1        0.0045
     23 C         136.4750  136.1472  173.3342 C.3     1  UNL1        0.0172
     24 C         135.1056  136.4696  173.8546 C.3     1  UNL1        0.0686
     25 N         134.3705  137.6707  173.3379 N.3     1  UNL1       -0.2974
     26 C         135.0047  138.5493  172.3007 C.3     1  UNL1        0.0702
     27 H         134.1712  138.2632  174.1439 H       1  UNL1        0.1232
@<TRIPOS>BOND
     1    11    12    1
     2    12    13   ar
     3    13    14   ar
     4    14    15   ar
     5    15     1    1
     6     1     2   ar
     7     2     3   ar
     8     3     4   ar
     9     4     5   ar
    10     5     6   ar
    11     6     7   ar
    12     7     8   ar
    13     8     9   ar
    14     9    18    1
    15    18    20    1
    16    21    20    1
    17    21    22    1
    18    22    23    1
    19    23    24    1
    20    24    25    1
    21    25    26    1
    22     9    10   ar
    23    15    16   ar
    24    16    17   ar
    25    17    12   ar
    26    10     1   ar
    27     8     3   ar
    28    26    21    1
    29    18    19    1
    30    25    27    1
@<TRIPOS>MOLECULE
*****
 27 30 0 0 0
SMALL
GASTEIGER

@<TRIPOS>ATOM
      1 C         140.0398  142.5204  165.3080 C.ar    1  UNL1        0.0842
      2 C         139.2109  141.9396  164.2010 C.ar    1  UNL1        0.0384
      3 C         139.2379  142.5635  162.8371 C.ar    1  UNL1        0.0887
      4 N         138.4090  141.9827  161.7301 N.ar    1  UNL1       -0.2238
      5 C         138.4360  142.6066  160.3663 C.ar    1  UNL1        0.1989
      6 N         139.2920  143.8113  160.1095 N.ar    1  UNL1       -0.2223
      7 C         140.1209  144.3922  161.2165 C.ar    1  UNL1        0.1049
      8 C         140.0939  143.7682  162.5803 C.ar    1  UNL1        0.0682
      9 C         140.9228  144.3490  163.6874 C.ar    1  UNL1        0.1313
     10 N         140.8958  143.7251  165.0512 N.ar    1  UNL1       -0.2308
     11 C         139.9317  140.0247  170.7633 C.3     1  UNL1        0.0310
     12 C         139.9587  140.6486  169.3994 C.ar    1  UNL1       -0.0218
     13 C         140.4767  142.0454  169.2238 C.ar    1  UNL1       -0.0042
     14 C         140.5037  142.6693  167.8600 C.ar    1  UNL1        0.0012
     15 C         140.0128  141.8965  166.6719 C.ar    1  UNL1        0.0177
     16 C         139.4948  140.4997  166.8475 C.ar    1  UNL1        0.0012
     17 C         139.4678  139.8758  168.2113 C.ar    1  UNL1       -0.0042
     18 N         141.7788  145.5538  163.4306 N.pl3   1  UNL1       -0.3180
     19 H         141.3796  146.3691  163.0497 H       1  UNL1        0.1482
     20 C         143.2430  145.5163  163.7543 C.3     1  UNL1        0.0895
     21 C         144.0250  144.2533  163.5461 C.3     1  UNL1        0.0353
     22 C         144.4327  143.4206  164.7252 C.3     1  UNL1        0.0045
     23 C         145.2147  142.1577  164.5170 C.3     1  UNL1        0.0172
     24 C         145.5891  141.7274  163.1297 C.3     1  UNL1        0.0686
     25 N         145.1814  142.5601  161.9505 N.3     1  UNL1       -0.2974
     26 C         144.3994  143.8230  162.1587 C.3     1  UNL1        0.0702
     27 H         144.6178  141.9607  161.3476 H       1  UNL1        0.1232
@<TRIPOS>BOND
     1    11    12    1
     2    12    13   ar
     3    13    14   ar
     4    14    15   ar
     5    15     1    1
     6     1     2   ar
     7     2     3   ar
     8     3     4   ar
     9     4     5   ar
    10     5     6   ar
    11     6     7   ar
    12     7     8   ar
    13     8     9   ar
    14     9    18    1
    15    18    20    1
    16    21    20    1
    17    21    22    1
    18    22    23    1
    19    23    24    1
    20    24    25    1
    21    25    26    1
    22     9    10   ar
    23    15    16   ar
    24    16    17   ar
    25    17    12   ar
    26    10     1   ar
    27     8     3   ar
    28    26    21    1
    29    18    19    1
    30    25    27    1
@<TRIPOS>MOLECULE
*****
 27 30 0 0 0
SMALL
GASTEIGER

@<TRIPOS>ATOM
      1 C         139.6329  141.9974  165.3222 C.ar    1  UNL1        0.0842
      2 C         140.2630  143.1415  164.5847 C.ar    1  UNL1        0.0384
      3 C         139.9217  143.3843  163.1444 C.ar    1  UNL1        0.0887
      4 N         140.5518  144.5284  162.4069 N.ar    1  UNL1       -0.2238
      5 C         140.2105  144.7712  160.9666 C.ar    1  UNL1        0.1989
      6 N         139.2391  143.8699  160.2638 N.ar    1  UNL1       -0.2223
      7 C         138.6089  142.7258  161.0013 C.ar    1  UNL1        0.1049
      8 C         138.9502  142.4830  162.4416 C.ar    1  UNL1        0.0682
      9 C         138.3201  141.3389  163.1792 C.ar    1  UNL1        0.1313
     10 N         138.6614  141.0961  164.6194 N.ar    1  UNL1       -0.2308
     11 C         140.9981  141.0262  171.0836 C.3     1  UNL1        0.0310
     12 C         140.6568  141.2690  169.6432 C.ar    1  UNL1       -0.0218
     13 C         140.1545  140.1414  168.7911 C.ar    1  UNL1       -0.0042
     14 C         139.8132  140.3841  167.3508 C.ar    1  UNL1        0.0012
     15 C         139.9742  141.7546  166.7626 C.ar    1  UNL1        0.0177
     16 C         140.4765  142.8822  167.6147 C.ar    1  UNL1        0.0012
     17 C         140.8178  142.6394  169.0551 C.ar    1  UNL1       -0.0042
     18 N         137.3486  140.4376  162.4764 N.pl3   1  UNL1       -0.3180
     19 H         136.4078  140.7100  162.3769 H       1  UNL1        0.1482
     20 C         137.8106  139.1213  161.9252 C.3     1  UNL1        0.0895
     21 C         138.9264  138.3770  162.5967 C.3     1  UNL1        0.0353
     22 C         138.8141  138.0040  164.0452 C.3     1  UNL1        0.0045
     23 C         139.9299  137.2598  164.7168 C.3     1  UNL1        0.0172
     24 C         141.1581  136.8884  163.9398 C.3     1  UNL1        0.0686
     25 N         141.2705  137.2614  162.4912 N.3     1  UNL1       -0.2974
     26 C         140.1546  138.0056  161.8197 C.3     1  UNL1        0.0702
     27 H         141.3989  136.3925  161.9726 H       1  UNL1        0.1232
@<TRIPOS>BOND
     1    11    12    1
     2    12    13   ar
     3    13    14   ar
     4    14    15   ar
     5    15     1    1
     6     1     2   ar
     7     2     3   ar
     8     3     4   ar
     9     4     5   ar
    10     5     6   ar
    11     6     7   ar
    12     7     8   ar
    13     8     9   ar
    14     9    18    1
    15    18    20    1
    16    21    20    1
    17    21    22    1
    18    22    23    1
    19    23    24    1
    20    24    25    1
    21    25    26    1
    22     9    10   ar
    23    15    16   ar
    24    16    17   ar
    25    17    12   ar
    26    10     1   ar
    27     8     3   ar
    28    26    21    1
    29    18    19    1
    30    25    27    1
@<TRIPOS>MOLECULE
*****
 27 30 0 0 0
SMALL
GASTEIGER

@<TRIPOS>ATOM
      1 C         139.3049  141.1207  165.7235 C.ar    1  UNL1        0.0842
      2 C         139.1581  139.7728  165.0820 C.ar    1  UNL1        0.0384
      3 C         138.6132  139.6605  163.6889 C.ar    1  UNL1        0.0887
      4 N         138.4664  138.3126  163.0474 N.ar    1  UNL1       -0.2238
      5 C         137.9216  138.2003  161.6544 C.ar    1  UNL1        0.1989
      6 N         137.5236  139.4359  160.9029 N.ar    1  UNL1       -0.2223
      7 C         137.6704  140.7838  161.5444 C.ar    1  UNL1        0.1049
      8 C         138.2152  140.8961  162.9374 C.ar    1  UNL1        0.0682
      9 C         138.3620  142.2441  163.5790 C.ar    1  UNL1        0.1313
     10 N         138.9068  142.3563  164.9720 N.ar    1  UNL1       -0.2308
     11 C         141.4842  141.5701  171.2957 C.3     1  UNL1        0.0310
     12 C         140.9393  141.4578  169.9026 C.ar    1  UNL1       -0.0218
     13 C         140.1855  140.2287  169.4889 C.ar    1  UNL1       -0.0042
     14 C         139.6407  140.1163  168.0959 C.ar    1  UNL1        0.0012
     15 C         139.8497  141.2330  167.1166 C.ar    1  UNL1        0.0177
     16 C         140.6035  142.4621  167.5302 C.ar    1  UNL1        0.0012
     17 C         141.1483  142.5745  168.9232 C.ar    1  UNL1       -0.0042
     18 N         137.9640  143.4797  162.8274 N.pl3   1  UNL1       -0.3180
     19 H         137.1961  143.4555  162.2119 H       1  UNL1        0.1482
     20 C         138.7360  144.7522  163.0138 C.3     1  UNL1        0.0895
     21 C         140.2307  144.7480  162.8871 C.3     1  UNL1        0.0353
     22 C         141.0877  144.7855  164.1176 C.3     1  UNL1        0.0045
     23 C         142.5824  144.7813  163.9909 C.3     1  UNL1        0.0172
     24 C         143.2199  144.7398  162.6338 C.3     1  UNL1        0.0686
     25 N         142.3629  144.7023  161.4033 N.3     1  UNL1       -0.2974
     26 C         140.8682  144.7064  161.5299 C.3     1  UNL1        0.0702
     27 H         142.6130  143.8535  160.8959 H       1  UNL1        0.1232
@<TRIPOS>BOND
     1    11    12    1
     2    12    13   ar
     3    13    14   ar
     4    14    15   ar
     5    15     1    1
     6     1     2   ar
     7     2     3   ar
     8     3     4   ar
     9     4     5   ar
    10     5     6   ar
    11     6     7   ar
    12     7     8   ar
    13     8     9   ar
    14     9    18    1
    15    18    20    1
    16    21    20    1
    17    21    22    1
    18    22    23    1
    19    23    24    1
    20    24    25    1
    21    25    26    1
    22     9    10   ar
    23    15    16   ar
    24    16    17   ar
    25    17    12   ar
    26    10     1   ar
    27     8     3   ar
    28    26    21    1
    29    18    19    1
    30    25    27    1
@<TRIPOS>MOLECULE
*****
 27 30 0 0 0
SMALL
GASTEIGER

@<TRIPOS>ATOM
      1 C         140.9686  138.7227  163.6510 C.ar    1  UNL1        0.0842
      2 C         140.5676  138.6500  162.2074 C.ar    1  UNL1        0.0384
      3 C         141.6019  138.8097  161.1327 C.ar    1  UNL1        0.0887
      4 N         141.2009  138.7370  159.6892 N.ar    1  UNL1       -0.2238
      5 C         142.2351  138.8967  158.6146 C.ar    1  UNL1        0.1989
      6 N         143.6704  139.1290  158.9835 N.ar    1  UNL1       -0.2223
      7 C         144.0714  139.2016  160.4271 C.ar    1  UNL1        0.1049
      8 C         143.0371  139.0420  161.5017 C.ar    1  UNL1        0.0682
      9 C         143.4381  139.1146  162.9453 C.ar    1  UNL1        0.1313
     10 N         142.4039  138.9550  164.0199 N.ar    1  UNL1       -0.2308
     11 C         136.8317  138.0842  167.9496 C.3     1  UNL1        0.0310
     12 C         137.8660  138.2439  166.8750 C.ar    1  UNL1       -0.0218
     13 C         138.1118  137.1312  165.8994 C.ar    1  UNL1       -0.0042
     14 C         139.1460  137.2908  164.8248 C.ar    1  UNL1        0.0012
     15 C         139.9344  138.5630  164.7257 C.ar    1  UNL1        0.0177
     16 C         139.6886  139.6757  165.7012 C.ar    1  UNL1        0.0012
     17 C         138.6544  139.5161  166.7758 C.ar    1  UNL1       -0.0042
     18 N         144.8734  139.3469  163.3143 N.pl3   1  UNL1       -0.3180
     19 H         145.5712  138.7350  162.9860 H       1  UNL1        0.1482
     20 C         145.2453  140.5115  164.1833 C.3     1  UNL1        0.0895
     21 C         144.8426  141.9013  163.7877 C.3     1  UNL1        0.0353
     22 C         144.2222  142.8189  164.7991 C.3     1  UNL1        0.0045
     23 C         143.8195  144.2086  164.4036 C.3     1  UNL1        0.0172
     24 C         144.0373  144.6808  162.9966 C.3     1  UNL1        0.0686
     25 N         144.6577  143.7631  161.9851 N.3     1  UNL1       -0.2974
     26 C         145.0604  142.3734  162.3807 C.3     1  UNL1        0.0702
     27 H         145.4991  144.2275  161.6433 H       1  UNL1        0.1232
@<TRIPOS>BOND
     1    11    12    1
     2    12    13   ar
     3    13    14   ar
     4    14    15   ar
     5    15     1    1
     6     1     2   ar
     7     2     3   ar
     8     3     4   ar
     9     4     5   ar
    10     5     6   ar
    11     6     7   ar
    12     7     8   ar
    13     8     9   ar
    14     9    18    1
    15    18    20    1
    16    21    20    1
    17    21    22    1
    18    22    23    1
    19    23    24    1
    20    24    25    1
    21    25    26    1
    22     9    10   ar
    23    15    16   ar
    24    16    17   ar
    25    17    12   ar
    26    10     1   ar
    27     8     3   ar
    28    26    21    1
    29    18    19    1
    30    25    27    1
@<TRIPOS>MOLECULE
*****
 27 30 0 0 0
SMALL
GASTEIGER

@<TRIPOS>ATOM
      1 C         140.6800  140.1975  165.9222 C.ar    1  UNL1        0.0842
      2 C         139.5504  139.8132  165.0132 C.ar    1  UNL1        0.0384
      3 C         139.8369  139.1361  163.7057 C.ar    1  UNL1        0.0887
      4 N         138.7073  138.7518  162.7968 N.ar    1  UNL1       -0.2238
      5 C         138.9938  138.0747  161.4894 C.ar    1  UNL1        0.1989
      6 N         140.4099  137.7819  161.0909 N.ar    1  UNL1       -0.2223
      7 C         141.5395  138.1661  161.9998 C.ar    1  UNL1        0.1049
      8 C         141.2530  138.8432  163.3072 C.ar    1  UNL1        0.0682
      9 C         142.3827  139.2275  164.2163 C.ar    1  UNL1        0.1313
     10 N         142.0962  139.9046  165.5237 N.ar    1  UNL1       -0.2308
     11 C         139.5341  142.9058  171.1521 C.3     1  UNL1        0.0310
     12 C         139.8206  142.2287  169.8446 C.ar    1  UNL1       -0.0218
     13 C         140.5262  142.9757  168.7519 C.ar    1  UNL1       -0.0042
     14 C         140.8127  142.2987  167.4445 C.ar    1  UNL1        0.0012
     15 C         140.3935  140.8746  167.2297 C.ar    1  UNL1        0.0177
     16 C         139.6879  140.1275  168.3224 C.ar    1  UNL1        0.0012
     17 C         139.4014  140.8046  169.6298 C.ar    1  UNL1       -0.0042
     18 N         143.7988  138.9347  163.8178 N.pl3   1  UNL1       -0.3180
     19 H         144.0197  138.0833  163.3756 H       1  UNL1        0.1482
     20 C         144.8784  139.9391  164.0931 C.3     1  UNL1        0.0895
     21 C         144.7184  141.3575  163.6321 C.3     1  UNL1        0.0353
     22 C         144.2687  142.4137  164.5975 C.3     1  UNL1        0.0045
     23 C         144.1087  143.8321  164.1365 C.3     1  UNL1        0.0172
     24 C         144.3986  144.1943  162.7101 C.3     1  UNL1        0.0686
     25 N         144.8484  143.1381  161.7446 N.3     1  UNL1       -0.2974
     26 C         145.0083  141.7197  162.2056 C.3     1  UNL1        0.0702
     27 H         145.7556  143.4349  161.3850 H       1  UNL1        0.1232
@<TRIPOS>BOND
     1    11    12    1
     2    12    13   ar
     3    13    14   ar
     4    14    15   ar
     5    15     1    1
     6     1     2   ar
     7     2     3   ar
     8     3     4   ar
     9     4     5   ar
    10     5     6   ar
    11     6     7   ar
    12     7     8   ar
    13     8     9   ar
    14     9    18    1
    15    18    20    1
    16    21    20    1
    17    21    22    1
    18    22    23    1
    19    23    24    1
    20    24    25    1
    21    25    26    1
    22     9    10   ar
    23    15    16   ar
    24    16    17   ar
    25    17    12   ar
    26    10     1   ar
    27     8     3   ar
    28    26    21    1
    29    18    19    1
    30    25    27    1
@<TRIPOS>MOLECULE
*****
 27 30 0 0 0
SMALL
GASTEIGER

@<TRIPOS>ATOM
      1 C         140.4894  142.4773  164.4762 C.ar    1  UNL1        0.0842
      2 C         140.9732  143.4082  163.4042 C.ar    1  UNL1        0.0384
      3 C         140.3131  143.4085  162.0572 C.ar    1  UNL1        0.0887
      4 N         140.7969  144.3394  160.9851 N.ar    1  UNL1       -0.2238
      5 C         140.1368  144.3397  159.6382 C.ar    1  UNL1        0.1989
      6 N         138.9929  143.4092  159.3633 N.ar    1  UNL1       -0.2223
      7 C         138.5091  142.4783  160.4354 C.ar    1  UNL1        0.1049
      8 C         139.1692  142.4780  161.7823 C.ar    1  UNL1        0.0682
      9 C         138.6854  141.5471  162.8545 C.ar    1  UNL1        0.1313
     10 N         139.3454  141.5468  164.2014 N.ar    1  UNL1       -0.2308
     11 C         143.1298  142.4759  169.8641 C.3     1  UNL1        0.0310
     12 C         142.4697  142.4762  168.5171 C.ar    1  UNL1       -0.0218
     13 C         140.9814  142.6306  168.4112 C.ar    1  UNL1       -0.0042
     14 C         140.3213  142.6310  167.0643 C.ar    1  UNL1        0.0012
     15 C         141.1495  142.4770  165.8232 C.ar    1  UNL1        0.0177
     16 C         142.6377  142.3226  165.9291 C.ar    1  UNL1        0.0012
     17 C         143.2979  142.3223  167.2760 C.ar    1  UNL1       -0.0042
     18 N         137.5414  140.6165  162.5796 N.pl3   1  UNL1       -0.3180
     19 H         136.6146  140.9307  162.6868 H       1  UNL1        0.1482
     20 C         137.8096  139.2073  162.1414 C.3     1  UNL1        0.0895
     21 C         138.9359  138.4317  162.7579 C.3     1  UNL1        0.0353
     22 C         138.9183  138.1221  164.2254 C.3     1  UNL1        0.0045
     23 C         140.0446  137.3464  164.8418 C.3     1  UNL1        0.0172
     24 C         141.1884  136.8804  163.9907 C.3     1  UNL1        0.0686
     25 N         141.2060  137.1901  162.5230 N.3     1  UNL1       -0.2974
     26 C         140.0797  137.9657  161.9066 C.3     1  UNL1        0.0702
     27 H         141.2501  136.2960  162.0340 H       1  UNL1        0.1232
@<TRIPOS>BOND
     1    11    12    1
     2    12    13   ar
     3    13    14   ar
     4    14    15   ar
     5    15     1    1
     6     1     2   ar
     7     2     3   ar
     8     3     4   ar
     9     4     5   ar
    10     5     6   ar
    11     6     7   ar
    12     7     8   ar
    13     8     9   ar
    14     9    18    1
    15    18    20    1
    16    21    20    1
    17    21    22    1
    18    22    23    1
    19    23    24    1
    20    24    25    1
    21    25    26    1
    22     9    10   ar
    23    15    16   ar
    24    16    17   ar
    25    17    12   ar
    26    10     1   ar
    27     8     3   ar
    28    26    21    1
    29    18    19    1
    30    25    27    1
@<TRIPOS>MOLECULE
*****
 27 30 0 0 0
SMALL
GASTEIGER

@<TRIPOS>ATOM
      1 C         141.1963  142.4959  165.8909 C.ar    1  UNL1        0.0842
      2 C         142.4023  142.0812  165.1013 C.ar    1  UNL1        0.0384
      3 C         142.6937  142.7305  163.7808 C.ar    1  UNL1        0.0887
      4 N         143.8997  142.3158  162.9911 N.ar    1  UNL1       -0.2238
      5 C         144.1911  142.9650  161.6707 C.ar    1  UNL1        0.1989
      6 N         143.2765  144.0289  161.1399 N.ar    1  UNL1       -0.2223
      7 C         142.0705  144.4436  161.9296 C.ar    1  UNL1        0.1049
      8 C         141.7791  143.7943  163.2500 C.ar    1  UNL1        0.0682
      9 C         140.5731  144.2090  164.0398 C.ar    1  UNL1        0.1313
     10 N         140.2817  143.5598  165.3602 N.ar    1  UNL1       -0.2308
     11 C         140.0305  139.8989  171.1727 C.3     1  UNL1        0.0310
     12 C         140.3219  140.5481  169.8522 C.ar    1  UNL1       -0.0218
     13 C         141.2769  141.7026  169.7786 C.ar    1  UNL1       -0.0042
     14 C         141.5683  142.3518  168.4582 C.ar    1  UNL1        0.0012
     15 C         140.9048  141.8466  167.2114 C.ar    1  UNL1        0.0177
     16 C         139.9499  140.6922  167.2850 C.ar    1  UNL1        0.0012
     17 C         139.6584  140.0430  168.6054 C.ar    1  UNL1       -0.0042
     18 N         139.6585  145.2729  163.5091 N.pl3   1  UNL1       -0.3180
     19 H         139.8946  146.2228  163.6152 H       1  UNL1        0.1482
     20 C         138.3844  144.8896  162.8167 C.3     1  UNL1        0.0895
     21 C         138.1201  143.4535  162.4733 C.3     1  UNL1        0.0353
     22 C         138.6743  142.8709  161.2071 C.3     1  UNL1        0.0045
     23 C         138.4100  141.4348  160.8637 C.3     1  UNL1        0.0172
     24 C         137.5915  140.5814  161.7865 C.3     1  UNL1        0.0686
     25 N         137.0372  141.1640  163.0528 N.3     1  UNL1       -0.2974
     26 C         137.3015  142.6001  163.3962 C.3     1  UNL1        0.0702
     27 H         137.4075  140.6046  163.8211 H       1  UNL1        0.1232
@<TRIPOS>BOND
     1    11    12    1
     2    12    13   ar
     3    13    14   ar
     4    14    15   ar
     5    15     1    1
     6     1     2   ar
     7     2     3   ar
     8     3     4   ar
     9     4     5   ar
    10     5     6   ar
    11     6     7   ar
    12     7     8   ar
    13     8     9   ar
    14     9    18    1
    15    18    20    1
    16    21    20    1
    17    21    22    1
    18    22    23    1
    19    23    24    1
    20    24    25    1
    21    25    26    1
    22     9    10   ar
    23    15    16   ar
    24    16    17   ar
    25    17    12   ar
    26    10     1   ar
    27     8     3   ar
    28    26    21    1
    29    18    19    1
    30    25    27    1
