@<TRIPOS>MOLECULE
*****
 30 34 0 0 0
SMALL
GASTEIGER

@<TRIPOS>ATOM
      1 O         144.2179  139.7743  158.8360 O.2     1  UNL1       -0.2526
      2 C         143.3527  138.8116  159.5942 C.2     1  UNL1        0.3039
      3 N         142.5309  137.7986  158.8538 N.am    1  UNL1       -0.2901
      4 N         143.3094  138.8620  161.0927 N.am    1  UNL1       -0.2642
      5 C         144.1314  139.8751  161.8331 C.3     1  UNL1        0.0954
      6 C         144.0881  139.9255  163.3316 C.3     1  UNL1        0.0309
      7 C         143.2229  138.9628  164.0898 C.3     1  UNL1        0.0827
      8 C         142.4010  137.9498  163.3493 C.3     1  UNL1        0.0309
      9 C         142.4443  137.8994  161.8508 C.3     1  UNL1        0.0954
     10 H         141.9630  137.1667  159.3513 H       1  UNL1        0.1509
     11 C         143.1796  139.0132  165.5883 C.ar    1  UNL1        0.2362
     12 N         142.6519  140.1463  166.4175 N.ar    1  UNL1       -0.1908
     13 C         142.8026  139.7727  167.8624 C.ar    1  UNL1        0.2034
     14 N         143.4234  138.4087  167.9262 N.ar    1  UNL1       -0.0560
     15 O         143.6564  137.9393  166.5207 O.2     1  UNL1       -0.3370
     16 C         142.4026  140.6153  169.0372 C.ar    1  UNL1        0.0422
     17 C         141.3394  140.1328  169.9788 C.ar    1  UNL1        0.0238
     18 C         140.9393  140.9752  171.1537 C.ar    1  UNL1        0.0990
     19 N         141.6026  142.3002  171.3869 N.ar    1  UNL1       -0.2423
     20 C         142.6659  142.7827  170.4453 C.ar    1  UNL1        0.0990
     21 C         143.0659  141.9402  169.2704 C.ar    1  UNL1        0.0238
     22 C         142.5742  137.7482  157.3552 C.3     1  UNL1        0.0774
     23 C         142.6285  138.4539  156.0328 C.3     1  UNL1        0.0259
     24 C         142.5948  136.9551  156.0822 C.3     1  UNL1        0.0420
     25 C         142.5872  135.6319  155.3758 C.ar    1  UNL1       -0.0208
     26 C         141.8856  135.4894  154.0577 C.ar    1  UNL1       -0.0042
     27 C         141.8781  134.1662  153.3513 C.ar    1  UNL1       -0.0003
     28 C         142.5722  132.9855  153.9630 C.ar    1  UNL1       -0.0000
     29 C         143.2738  133.1280  155.2811 C.ar    1  UNL1       -0.0003
     30 C         143.2813  134.4512  155.9875 C.ar    1  UNL1       -0.0042
@<TRIPOS>BOND
     1     1     2    2
     2     2     3   am
     3     3    22    1
     4    22    23    1
     5    23    24    1
     6    24    25    1
     7    25    26   ar
     8    26    27   ar
     9    27    28   ar
    10    28    29   ar
    11    29    30   ar
    12     2     4   am
    13     4     5    1
    14     5     6    1
    15     6     7    1
    16     7    11    1
    17    11    12   ar
    18    12    13   ar
    19    13    16    1
    20    16    17   ar
    21    17    18   ar
    22    18    19   ar
    23    19    20   ar
    24    20    21   ar
    25    13    14   ar
    26    14    15   ar
    27     7     8    1
    28     8     9    1
    29    24    22    1
    30    30    25   ar
    31     9     4    1
    32    15    11   ar
    33    21    16   ar
    34     3    10    1
@<TRIPOS>MOLECULE
*****
 30 34 0 0 0
SMALL
GASTEIGER

@<TRIPOS>ATOM
      1 O         139.7126  138.2571  158.7752 O.2     1  UNL1       -0.2526
      2 C         140.8009  138.2704  159.8075 C.2     1  UNL1        0.3039
      3 N         142.2283  138.0650  159.3951 N.am    1  UNL1       -0.2901
      4 N         140.4616  138.4892  161.2522 N.am    1  UNL1       -0.2642
      5 C         139.0341  138.6947  161.6645 C.3     1  UNL1        0.0954
      6 C         138.6948  138.9135  163.1092 C.3     1  UNL1        0.0309
      7 C         139.7831  138.9268  164.1415 C.3     1  UNL1        0.0827
      8 C         141.2105  138.7213  163.7291 C.3     1  UNL1        0.0309
      9 C         141.5498  138.5025  162.2844 C.3     1  UNL1        0.0954
     10 H         142.9426  138.0737  160.0726 H       1  UNL1        0.1509
     11 C         139.4438  139.1455  165.5861 C.ar    1  UNL1        0.2362
     12 N         140.2042  140.0079  166.5496 N.ar    1  UNL1       -0.1908
     13 C         139.5149  139.9357  167.8799 C.ar    1  UNL1        0.2034
     14 N         138.3286  139.0287  167.7387 N.ar    1  UNL1       -0.0560
     15 O         138.2847  138.5404  166.3211 O.2     1  UNL1       -0.3370
     16 C         139.9378  140.6458  169.1316 C.ar    1  UNL1        0.0422
     17 C         140.4520  139.8610  170.3019 C.ar    1  UNL1        0.0238
     18 C         140.8749  140.5710  171.5537 C.ar    1  UNL1        0.0990
     19 N         140.7836  142.0660  171.6352 N.ar    1  UNL1       -0.2423
     20 C         140.2693  142.8509  170.4650 C.ar    1  UNL1        0.0990
     21 C         139.8464  142.1408  169.2131 C.ar    1  UNL1        0.0238
     22 C         142.5676  137.8462  157.9504 C.3     1  UNL1        0.0774
     23 C         142.9848  138.3919  156.6170 C.3     1  UNL1        0.0259
     24 C         142.7380  136.9215  156.7817 C.3     1  UNL1        0.0420
     25 C         142.6939  135.5387  156.2021 C.ar    1  UNL1       -0.0208
     26 C         141.5415  135.1251  155.3355 C.ar    1  UNL1       -0.0042
     27 C         141.4974  133.7424  154.7559 C.ar    1  UNL1       -0.0003
     28 C         142.6058  132.7732  155.0428 C.ar    1  UNL1       -0.0000
     29 C         143.7581  133.1868  155.9093 C.ar    1  UNL1       -0.0003
     30 C         143.8022  134.5695  156.4890 C.ar    1  UNL1       -0.0042
@<TRIPOS>BOND
     1     1     2    2
     2     2     3   am
     3     3    22    1
     4    22    23    1
     5    23    24    1
     6    24    25    1
     7    25    26   ar
     8    26    27   ar
     9    27    28   ar
    10    28    29   ar
    11    29    30   ar
    12     2     4   am
    13     4     5    1
    14     5     6    1
    15     6     7    1
    16     7    11    1
    17    11    12   ar
    18    12    13   ar
    19    13    16    1
    20    16    17   ar
    21    17    18   ar
    22    18    19   ar
    23    19    20   ar
    24    20    21   ar
    25    13    14   ar
    26    14    15   ar
    27     7     8    1
    28     8     9    1
    29    24    22    1
    30    30    25   ar
    31     9     4    1
    32    15    11   ar
    33    21    16   ar
    34     3    10    1
@<TRIPOS>MOLECULE
*****
 30 34 0 0 0
SMALL
GASTEIGER

@<TRIPOS>ATOM
      1 O         142.9573  144.0526  158.2222 O.2     1  UNL1       -0.2526
      2 C         143.8118  143.1124  159.0196 C.2     1  UNL1        0.3039
      3 N         144.8524  142.2788  158.3325 N.am    1  UNL1       -0.2901
      4 N         143.6256  143.0058  160.5042 N.am    1  UNL1       -0.2642
      5 C         142.5850  143.8395  161.1914 C.3     1  UNL1        0.0954
      6 C         142.3988  143.7329  162.6759 C.3     1  UNL1        0.0309
      7 C         143.2533  142.7927  163.4734 C.3     1  UNL1        0.0827
      8 C         144.2939  141.9591  162.7863 C.3     1  UNL1        0.0309
      9 C         144.4801  142.0657  161.3017 C.3     1  UNL1        0.0954
     10 H         145.4132  141.6617  158.8559 H       1  UNL1        0.1509
     11 C         143.0672  142.6862  164.9580 C.ar    1  UNL1        0.2362
     12 N         141.8119  142.2619  165.6610 N.ar    1  UNL1       -0.1908
     13 C         142.0725  142.2987  167.1377 C.ar    1  UNL1        0.2034
     14 N         143.4889  142.7457  167.3474 N.ar    1  UNL1       -0.0560
     15 O         144.1037  142.9851  166.0003 O.2     1  UNL1       -0.3370
     16 C         141.0894  141.9498  168.2155 C.ar    1  UNL1        0.0422
     17 C         140.8279  142.9152  169.3333 C.ar    1  UNL1        0.0238
     18 C         139.8448  142.5664  170.4112 C.ar    1  UNL1        0.0990
     19 N         139.1230  141.2521  170.3711 N.ar    1  UNL1       -0.2423
     20 C         139.3844  140.2866  169.2533 C.ar    1  UNL1        0.0990
     21 C         140.3677  140.6355  168.1754 C.ar    1  UNL1        0.0238
     22 C         145.0385  142.3853  156.8479 C.3     1  UNL1        0.0774
     23 C         144.4558  142.5053  155.4710 C.3     1  UNL1        0.0259
     24 C         145.9436  142.4498  155.6536 C.3     1  UNL1        0.0420
     25 C         147.3253  142.4550  155.0694 C.ar    1  UNL1       -0.0208
     26 C         147.6009  143.2085  153.8020 C.ar    1  UNL1       -0.0042
     27 C         148.9824  143.2136  153.2179 C.ar    1  UNL1       -0.0003
     28 C         150.0884  142.4652  153.9012 C.ar    1  UNL1       -0.0000
     29 C         149.8128  141.7117  155.1685 C.ar    1  UNL1       -0.0003
     30 C         148.4312  141.7066  155.7526 C.ar    1  UNL1       -0.0042
@<TRIPOS>BOND
     1     1     2    2
     2     2     3   am
     3     3    22    1
     4    22    23    1
     5    23    24    1
     6    24    25    1
     7    25    26   ar
     8    26    27   ar
     9    27    28   ar
    10    28    29   ar
    11    29    30   ar
    12     2     4   am
    13     4     5    1
    14     5     6    1
    15     6     7    1
    16     7    11    1
    17    11    12   ar
    18    12    13   ar
    19    13    16    1
    20    16    17   ar
    21    17    18   ar
    22    18    19   ar
    23    19    20   ar
    24    20    21   ar
    25    13    14   ar
    26    14    15   ar
    27     7     8    1
    28     8     9    1
    29    24    22    1
    30    30    25   ar
    31     9     4    1
    32    15    11   ar
    33    21    16   ar
    34     3    10    1
@<TRIPOS>MOLECULE
*****
 30 34 0 0 0
SMALL
GASTEIGER

@<TRIPOS>ATOM
      1 O         138.9464  143.1811  158.2245 O.2     1  UNL1       -0.2526
      2 C         139.8734  144.1106  158.9503 C.2     1  UNL1        0.3039
      3 N         140.3608  145.3598  158.2781 N.am    1  UNL1       -0.2901
      4 N         140.3131  143.7908  160.3483 N.am    1  UNL1       -0.2642
      5 C         139.8257  142.5416  161.0206 C.3     1  UNL1        0.0954
      6 C         140.2653  142.2218  162.4186 C.3     1  UNL1        0.0309
      7 C         141.1923  143.1513  163.1444 C.3     1  UNL1        0.0827
      8 C         141.6797  144.4005  162.4721 C.3     1  UNL1        0.0309
      9 C         141.2400  144.7203  161.0741 C.3     1  UNL1        0.0954
     10 H         140.9692  145.9698  158.7544 H       1  UNL1        0.1509
     11 C         141.6320  142.8316  164.5424 C.ar    1  UNL1        0.2362
     12 N         140.7331  142.6492  165.7294 N.ar    1  UNL1       -0.1908
     13 C         141.5933  142.3430  166.9195 C.ar    1  UNL1        0.2034
     14 N         143.0237  142.3361  166.4681 N.ar    1  UNL1       -0.0560
     15 O         143.0476  142.6381  164.9990 O.2     1  UNL1       -0.3370
     16 C         141.1081  142.0883  168.3158 C.ar    1  UNL1        0.0422
     17 C         140.4268  143.1817  169.0841 C.ar    1  UNL1        0.0238
     18 C         139.9416  142.9271  170.4805 C.ar    1  UNL1        0.0990
     19 N         140.1378  141.5791  171.1085 N.ar    1  UNL1       -0.2423
     20 C         140.8191  140.4858  170.3402 C.ar    1  UNL1        0.0990
     21 C         141.3043  140.7404  168.9438 C.ar    1  UNL1        0.0238
     22 C         139.9211  145.6795  156.8800 C.3     1  UNL1        0.0774
     23 C         139.5154  145.2240  155.5097 C.3     1  UNL1        0.0259
     24 C         139.5654  146.6888  155.8290 C.3     1  UNL1        0.0420
     25 C         139.3890  148.1173  155.4065 C.ar    1  UNL1       -0.0208
     26 C         138.5836  149.0563  156.2547 C.ar    1  UNL1       -0.0042
     27 C         138.4072  150.4846  155.8321 C.ar    1  UNL1       -0.0003
     28 C         139.0362  150.9740  154.5614 C.ar    1  UNL1       -0.0000
     29 C         139.8417  150.0350  153.7132 C.ar    1  UNL1       -0.0003
     30 C         140.0181  148.6067  154.1357 C.ar    1  UNL1       -0.0042
@<TRIPOS>BOND
     1     1     2    2
     2     2     3   am
     3     3    22    1
     4    22    23    1
     5    23    24    1
     6    24    25    1
     7    25    26   ar
     8    26    27   ar
     9    27    28   ar
    10    28    29   ar
    11    29    30   ar
    12     2     4   am
    13     4     5    1
    14     5     6    1
    15     6     7    1
    16     7    11    1
    17    11    12   ar
    18    12    13   ar
    19    13    16    1
    20    16    17   ar
    21    17    18   ar
    22    18    19   ar
    23    19    20   ar
    24    20    21   ar
    25    13    14   ar
    26    14    15   ar
    27     7     8    1
    28     8     9    1
    29    24    22    1
    30    30    25   ar
    31     9     4    1
    32    15    11   ar
    33    21    16   ar
    34     3    10    1
@<TRIPOS>MOLECULE
*****
 30 34 0 0 0
SMALL
GASTEIGER

@<TRIPOS>ATOM
      1 O         141.1005  143.3698  162.1214 O.2     1  UNL1       -0.2526
      2 C         141.1142  141.8779  162.2779 C.2     1  UNL1        0.3039
      3 N         140.6468  141.2540  163.5594 N.am    1  UNL1       -0.2901
      4 N         141.5952  141.0102  161.1529 N.am    1  UNL1       -0.2642
      5 C         142.0626  141.6342  159.8714 C.3     1  UNL1        0.0954
      6 C         142.5436  140.7665  158.7464 C.3     1  UNL1        0.0309
      7 C         142.5572  139.2747  158.9029 C.3     1  UNL1        0.0827
      8 C         142.0898  138.6507  160.1843 C.3     1  UNL1        0.0309
      9 C         141.6088  139.5185  161.3093 C.3     1  UNL1        0.0954
     10 H         140.6557  140.2749  163.6621 H       1  UNL1        0.1509
     11 C         143.0382  138.4069  157.7779 C.ar    1  UNL1        0.2362
     12 N         142.6694  136.9706  157.5525 N.ar    1  UNL1       -0.1908
     13 C         143.3757  136.4991  156.3161 C.ar    1  UNL1        0.2034
     14 N         144.1811  137.6441  155.7773 N.ar    1  UNL1       -0.0560
     15 O         143.9725  138.8232  156.6807 O.2     1  UNL1       -0.3370
     16 C         143.2915  135.1240  155.7227 C.ar    1  UNL1        0.0422
     17 C         143.9013  133.9579  156.4425 C.ar    1  UNL1        0.0238
     18 C         143.8171  132.5828  155.8492 C.ar    1  UNL1        0.0990
     19 N         143.1230  132.3739  154.5359 N.ar    1  UNL1       -0.2423
     20 C         142.5132  133.5400  153.8161 C.ar    1  UNL1        0.0990
     21 C         142.5974  134.9152  154.4095 C.ar    1  UNL1        0.0238
     22 C         140.1658  142.1217  164.6844 C.3     1  UNL1        0.0774
     23 C         139.1740  143.1028  165.2356 C.3     1  UNL1        0.0259
     24 C         140.3244  142.6436  166.0816 C.3     1  UNL1        0.0420
     25 C         141.0802  142.6799  167.3768 C.ar    1  UNL1       -0.0208
     26 C         140.4136  143.1892  168.6202 C.ar    1  UNL1       -0.0042
     27 C         141.1694  143.2254  169.9153 C.ar    1  UNL1       -0.0003
     28 C         142.5919  142.7523  169.9670 C.ar    1  UNL1       -0.0000
     29 C         143.2586  142.2431  168.7236 C.ar    1  UNL1       -0.0003
     30 C         142.5028  142.2068  167.4285 C.ar    1  UNL1       -0.0042
@<TRIPOS>BOND
     1     1     2    2
     2     2     3   am
     3     3    22    1
     4    22    23    1
     5    23    24    1
     6    24    25    1
     7    25    26   ar
     8    26    27   ar
     9    27    28   ar
    10    28    29   ar
    11    29    30   ar
    12     2     4   am
    13     4     5    1
    14     5     6    1
    15     6     7    1
    16     7    11    1
    17    11    12   ar
    18    12    13   ar
    19    13    16    1
    20    16    17   ar
    21    17    18   ar
    22    18    19   ar
    23    19    20   ar
    24    20    21   ar
    25    13    14   ar
    26    14    15   ar
    27     7     8    1
    28     8     9    1
    29    24    22    1
    30    30    25   ar
    31     9     4    1
    32    15    11   ar
    33    21    16   ar
    34     3    10    1
@<TRIPOS>MOLECULE
*****
 30 34 0 0 0
SMALL
GASTEIGER

@<TRIPOS>ATOM
      1 O         140.0886  138.3887  158.2458 O.2     1  UNL1       -0.2526
      2 C         141.2724  138.6230  159.1368 C.2     1  UNL1        0.3039
      3 N         142.6352  138.1645  158.7094 N.am    1  UNL1       -0.2901
      4 N         141.0934  139.3158  160.4551 N.am    1  UNL1       -0.2642
      5 C         139.7305  139.7743  160.8824 C.3     1  UNL1        0.0954
      6 C         139.5515  140.4670  162.2007 C.3     1  UNL1        0.0309
      7 C         140.7353  140.7014  163.0917 C.3     1  UNL1        0.0827
      8 C         142.0980  140.2429  162.6644 C.3     1  UNL1        0.0309
      9 C         142.2771  139.5501  161.3461 C.3     1  UNL1        0.0954
     10 H         143.4121  138.3183  159.2942 H       1  UNL1        0.1509
     11 C         140.5562  141.3942  164.4101 C.ar    1  UNL1        0.2362
     12 N         140.6117  140.7458  165.7615 N.ar    1  UNL1       -0.1908
     13 C         140.3800  141.8079  166.7951 C.ar    1  UNL1        0.2034
     14 N         140.1813  143.1127  166.0824 N.ar    1  UNL1       -0.0560
     15 O         140.2902  142.8570  164.6084 O.2     1  UNL1       -0.3370
     16 C         140.3520  141.6014  168.2806 C.ar    1  UNL1        0.0422
     17 C         140.2757  142.7835  169.2008 C.ar    1  UNL1        0.0238
     18 C         140.2476  142.5771  170.6863 C.ar    1  UNL1        0.0990
     19 N         140.2959  141.1885  171.2515 N.ar    1  UNL1       -0.2423
     20 C         140.3723  140.0064  170.3313 C.ar    1  UNL1        0.0990
     21 C         140.4003  140.2129  168.8458 C.ar    1  UNL1        0.0238
     22 C         142.8142  137.4717  157.3911 C.3     1  UNL1        0.0774
     23 C         143.0659  137.5355  155.9138 C.3     1  UNL1        0.0259
     24 C         142.8727  136.2081  156.5851 C.3     1  UNL1        0.0420
     25 C         142.7949  134.7121  156.5074 C.ar    1  UNL1       -0.0208
     26 C         143.7158  133.8690  157.3386 C.ar    1  UNL1       -0.0042
     27 C         143.6381  132.3731  157.2609 C.ar    1  UNL1       -0.0003
     28 C         142.6393  131.7202  156.3518 C.ar    1  UNL1       -0.0000
     29 C         141.7184  132.5633  155.5205 C.ar    1  UNL1       -0.0003
     30 C         141.7962  134.0592  155.5983 C.ar    1  UNL1       -0.0042
@<TRIPOS>BOND
     1     1     2    2
     2     2     3   am
     3     3    22    1
     4    22    23    1
     5    23    24    1
     6    24    25    1
     7    25    26   ar
     8    26    27   ar
     9    27    28   ar
    10    28    29   ar
    11    29    30   ar
    12     2     4   am
    13     4     5    1
    14     5     6    1
    15     6     7    1
    16     7    11    1
    17    11    12   ar
    18    12    13   ar
    19    13    16    1
    20    16    17   ar
    21    17    18   ar
    22    18    19   ar
    23    19    20   ar
    24    20    21   ar
    25    13    14   ar
    26    14    15   ar
    27     7     8    1
    28     8     9    1
    29    24    22    1
    30    30    25   ar
    31     9     4    1
    32    15    11   ar
    33    21    16   ar
    34     3    10    1
@<TRIPOS>MOLECULE
*****
 30 34 0 0 0
SMALL
GASTEIGER

@<TRIPOS>ATOM
      1 O         140.4785  138.4231  158.5131 O.2     1  UNL1       -0.2526
      2 C         141.8454  138.4002  159.1306 C.2     1  UNL1        0.3039
      3 N         142.9554  137.6401  158.4672 N.am    1  UNL1       -0.2901
      4 N         142.1022  139.1373  160.4115 N.am    1  UNL1       -0.2642
      5 C         140.9921  139.8974  161.0749 C.3     1  UNL1        0.0954
      6 C         141.2489  140.6346  162.3558 C.3     1  UNL1        0.0309
      7 C         142.6158  140.6116  162.9733 C.3     1  UNL1        0.0827
      8 C         143.7258  139.8515  162.3099 C.3     1  UNL1        0.0309
      9 C         143.4690  139.1144  161.0290 C.3     1  UNL1        0.0954
     10 H         143.8525  137.6250  158.8725 H       1  UNL1        0.1509
     11 C         142.8726  141.3488  164.2541 C.ar    1  UNL1        0.2362
     12 N         142.0868  141.2097  165.5243 N.ar    1  UNL1       -0.1908
     13 C         142.6888  142.1294  166.5449 C.ar    1  UNL1        0.2034
     14 N         143.8467  142.8369  165.9056 N.ar    1  UNL1       -0.0560
     15 O         143.9602  142.3545  164.4898 O.2     1  UNL1       -0.3370
     16 C         142.2160  142.3099  167.9569 C.ar    1  UNL1        0.0422
     17 C         143.2124  142.4499  169.0694 C.ar    1  UNL1        0.0238
     18 C         142.7396  142.6303  170.4815 C.ar    1  UNL1        0.0990
     19 N         141.2704  142.6708  170.7811 N.ar    1  UNL1       -0.2423
     20 C         140.2740  142.5308  169.6686 C.ar    1  UNL1        0.0990
     21 C         140.7468  142.3503  168.2565 C.ar    1  UNL1        0.0238
     22 C         142.6986  136.9029  157.1863 C.3     1  UNL1        0.0774
     23 C         142.3152  136.9129  155.7362 C.3     1  UNL1        0.0259
     24 C         142.6372  135.6162  156.4180 C.3     1  UNL1        0.0420
     25 C         142.7878  134.1245  156.3679 C.ar    1  UNL1       -0.0208
     26 C         141.7469  133.2882  155.6844 C.ar    1  UNL1       -0.0042
     27 C         141.8975  131.7966  155.6344 C.ar    1  UNL1       -0.0003
     28 C         143.0888  131.1414  156.2679 C.ar    1  UNL1       -0.0000
     29 C         144.1297  131.9777  156.9514 C.ar    1  UNL1       -0.0003
     30 C         143.9791  133.4693  157.0014 C.ar    1  UNL1       -0.0042
@<TRIPOS>BOND
     1     1     2    2
     2     2     3   am
     3     3    22    1
     4    22    23    1
     5    23    24    1
     6    24    25    1
     7    25    26   ar
     8    26    27   ar
     9    27    28   ar
    10    28    29   ar
    11    29    30   ar
    12     2     4   am
    13     4     5    1
    14     5     6    1
    15     6     7    1
    16     7    11    1
    17    11    12   ar
    18    12    13   ar
    19    13    16    1
    20    16    17   ar
    21    17    18   ar
    22    18    19   ar
    23    19    20   ar
    24    20    21   ar
    25    13    14   ar
    26    14    15   ar
    27     7     8    1
    28     8     9    1
    29    24    22    1
    30    30    25   ar
    31     9     4    1
    32    15    11   ar
    33    21    16   ar
    34     3    10    1
@<TRIPOS>MOLECULE
*****
 30 34 0 0 0
SMALL
GASTEIGER

@<TRIPOS>ATOM
      1 O         139.0860  140.8823  162.6444 O.2     1  UNL1       -0.2526
      2 C         140.5360  141.0187  162.2850 C.2     1  UNL1        0.3039
      3 N         141.4212  141.9371  163.0743 N.am    1  UNL1       -0.2901
      4 N         141.1007  140.2368  161.1362 N.am    1  UNL1       -0.2642
      5 C         140.2154  139.3184  160.3469 C.3     1  UNL1        0.0954
      6 C         140.7801  138.5364  159.1982 C.3     1  UNL1        0.0309
      7 C         142.2301  138.6728  158.8387 C.3     1  UNL1        0.0827
      8 C         143.1152  139.5911  159.6280 C.3     1  UNL1        0.0309
      9 C         142.5505  140.3731  160.7768 C.3     1  UNL1        0.0954
     10 H         142.3728  142.0266  162.8384 H       1  UNL1        0.1509
     11 C         142.7948  137.8908  157.6900 C.ar    1  UNL1        0.2362
     12 N         142.3296  136.5415  157.2285 N.ar    1  UNL1       -0.1908
     13 C         143.1711  136.1376  156.0543 C.ar    1  UNL1        0.2034
     14 N         144.1564  137.2373  155.7901 N.ar    1  UNL1       -0.0560
     15 O         143.9238  138.3208  156.8010 O.2     1  UNL1       -0.3370
     16 C         143.0487  134.8585  155.2803 C.ar    1  UNL1        0.0422
     17 C         142.3284  134.8441  153.9647 C.ar    1  UNL1        0.0238
     18 C         142.2060  133.5651  153.1906 C.ar    1  UNL1        0.0990
     19 N         142.8040  132.3005  153.7322 N.ar    1  UNL1       -0.2423
     20 C         143.5244  132.3150  155.0478 C.ar    1  UNL1        0.0990
     21 C         143.6467  133.5941  155.8219 C.ar    1  UNL1        0.0238
     22 C         140.8565  142.7191  164.2230 C.3     1  UNL1        0.0774
     23 C         140.3252  144.0055  164.7824 C.3     1  UNL1        0.0259
     24 C         140.4097  142.7871  165.6533 C.3     1  UNL1        0.0420
     25 C         140.2005  142.1229  166.9819 C.ar    1  UNL1       -0.0208
     26 C         139.7409  140.6964  167.0432 C.ar    1  UNL1       -0.0042
     27 C         139.5317  140.0323  168.3717 C.ar    1  UNL1       -0.0003
     28 C         139.7821  140.7947  169.6390 C.ar    1  UNL1       -0.0000
     29 C         140.2417  142.2212  169.5778 C.ar    1  UNL1       -0.0003
     30 C         140.4509  142.8853  168.2492 C.ar    1  UNL1       -0.0042
@<TRIPOS>BOND
     1     1     2    2
     2     2     3   am
     3     3    22    1
     4    22    23    1
     5    23    24    1
     6    24    25    1
     7    25    26   ar
     8    26    27   ar
     9    27    28   ar
    10    28    29   ar
    11    29    30   ar
    12     2     4   am
    13     4     5    1
    14     5     6    1
    15     6     7    1
    16     7    11    1
    17    11    12   ar
    18    12    13   ar
    19    13    16    1
    20    16    17   ar
    21    17    18   ar
    22    18    19   ar
    23    19    20   ar
    24    20    21   ar
    25    13    14   ar
    26    14    15   ar
    27     7     8    1
    28     8     9    1
    29    24    22    1
    30    30    25   ar
    31     9     4    1
    32    15    11   ar
    33    21    16   ar
    34     3    10    1
@<TRIPOS>MOLECULE
*****
 30 34 0 0 0
SMALL
GASTEIGER

@<TRIPOS>ATOM
      1 O         142.5552  139.5178  165.3978 O.2     1  UNL1       -0.2526
      2 C         141.4602  139.2644  164.4043 C.2     1  UNL1        0.3039
      3 N         140.0256  139.3225  164.8382 N.am    1  UNL1       -0.2901
      4 N         141.8000  138.9531  162.9768 N.am    1  UNL1       -0.2642
      5 C         143.2347  138.8950  162.5429 C.3     1  UNL1        0.0954
      6 C         143.5745  138.5836  161.1155 C.3     1  UNL1        0.0309
      7 C         142.4795  138.3303  160.1220 C.3     1  UNL1        0.0827
      8 C         141.0449  138.3884  160.5559 C.3     1  UNL1        0.0309
      9 C         140.7051  138.6998  161.9834 C.3     1  UNL1        0.0954
     10 H         139.3069  139.1563  164.1862 H       1  UNL1        0.1509
     11 C         142.8193  138.0189  158.6945 C.ar    1  UNL1        0.2362
     12 N         142.3136  136.8496  157.9027 N.ar    1  UNL1       -0.1908
     13 C         142.9062  136.9301  156.5271 C.ar    1  UNL1        0.2034
     14 N         143.7782  138.1492  156.4687 N.ar    1  UNL1       -0.0560
     15 O         143.7245  138.8221  157.8082 O.2     1  UNL1       -0.3370
     16 C         142.6685  135.9616  155.4066 C.ar    1  UNL1        0.0422
     17 C         143.0121  134.5121  155.5826 C.ar    1  UNL1        0.0238
     18 C         142.7745  133.5435  154.4622 C.ar    1  UNL1        0.0990
     19 N         142.1932  134.0244  153.1657 N.ar    1  UNL1       -0.2423
     20 C         141.8496  135.4739  152.9897 C.ar    1  UNL1        0.0990
     21 C         142.0873  136.4425  154.1102 C.ar    1  UNL1        0.0238
     22 C         139.6858  139.6339  166.2657 C.3     1  UNL1        0.0774
     23 C         138.7634  139.4984  167.4407 C.3     1  UNL1        0.0259
     24 C         140.0196  140.3089  167.5629 C.3     1  UNL1        0.0420
     25 C         140.9377  141.1665  168.3825 C.ar    1  UNL1       -0.0208
     26 C         142.3750  140.7740  168.5560 C.ar    1  UNL1       -0.0042
     27 C         143.2930  141.6316  169.3755 C.ar    1  UNL1       -0.0003
     28 C         142.7737  142.8818  170.0216 C.ar    1  UNL1       -0.0000
     29 C         141.3365  143.2744  169.8481 C.ar    1  UNL1       -0.0003
     30 C         140.4185  142.4167  169.0286 C.ar    1  UNL1       -0.0042
@<TRIPOS>BOND
     1     1     2    2
     2     2     3   am
     3     3    22    1
     4    22    23    1
     5    23    24    1
     6    24    25    1
     7    25    26   ar
     8    26    27   ar
     9    27    28   ar
    10    28    29   ar
    11    29    30   ar
    12     2     4   am
    13     4     5    1
    14     5     6    1
    15     6     7    1
    16     7    11    1
    17    11    12   ar
    18    12    13   ar
    19    13    16    1
    20    16    17   ar
    21    17    18   ar
    22    18    19   ar
    23    19    20   ar
    24    20    21   ar
    25    13    14   ar
    26    14    15   ar
    27     7     8    1
    28     8     9    1
    29    24    22    1
    30    30    25   ar
    31     9     4    1
    32    15    11   ar
    33    21    16   ar
    34     3    10    1
