@<TRIPOS>MOLECULE
*****
 29 32 0 0 0
SMALL
GASTEIGER

@<TRIPOS>ATOM
      1 N         141.8207  138.4298  162.6613 N.am    1  UNL1       -0.2602
      2 C         140.7284  138.0727  161.6973 C.3     1  UNL1        0.1167
      3 C         139.5105  137.7053  162.4921 C.3     1  UNL1        0.1165
      4 N         139.8501  137.8354  163.9474 N.am    1  UNL1       -0.2609
      5 C         141.2779  138.2832  164.0519 C.2     1  UNL1        0.3075
      6 O         142.0307  138.5395  165.3238 O.2     1  UNL1       -0.2523
      7 C         144.0691  137.9749  161.4415 C.3     1  UNL1        0.0265
      8 C         143.2116  138.8584  162.2984 C.3     1  UNL1        0.0994
      9 C         143.7450  140.1705  162.7923 C.ar    1  UNL1       -0.0043
     10 C         145.0515  140.2200  163.5275 C.ar    1  UNL1       -0.0027
     11 C         145.5849  141.5321  164.0214 C.ar    1  UNL1       -0.0003
     12 C         144.8118  142.7947  163.7800 C.ar    1  UNL1        0.0038
     13 C         143.5053  142.7451  163.0448 C.ar    1  UNL1        0.0712
     14 C         142.9719  141.4330  162.5509 C.ar    1  UNL1        0.0012
     15 C         142.7322  144.0077  162.8034 C.3     1  UNL1        0.4186
     16 F         141.9590  145.2703  162.5621 F       1  UNL1       -0.1659
     17 F         143.9415  144.8175  163.1664 F       1  UNL1       -0.1659
     18 F         141.5229  143.1978  162.4405 F       1  UNL1       -0.1659
     19 C         138.9245  137.5652  165.0964 C.3     1  UNL1        0.1123
     20 C         138.4605  138.6949  165.9674 C.3     1  UNL1        0.0944
     21 N         138.5577  140.1090  165.4768 N.3     1  UNL1       -0.2637
     22 C         139.4240  141.1865  166.0586 C.3     1  UNL1        0.0992
     23 C         139.2074  142.4374  165.2596 C.ar    1  UNL1       -0.0088
     24 C         139.7917  143.8143  165.3725 C.ar    1  UNL1       -0.0032
     25 C         139.3758  144.8867  164.4098 C.ar    1  UNL1       -0.0003
     26 C         138.3756  144.5823  163.3342 C.ar    1  UNL1       -0.0003
     27 C         137.7913  143.2055  163.2213 C.ar    1  UNL1       -0.0032
     28 C         138.2072  142.1330  164.1840 C.ar    1  UNL1       -0.0088
     29 C         137.8057  140.6940  164.3182 C.3     1  UNL1        0.0992
@<TRIPOS>BOND
     1     7     8    1
     2     8     9    1
     3     9    10   ar
     4    10    11   ar
     5    11    12   ar
     6    12    13   ar
     7    13    15    1
     8    15    16    1
     9    15    17    1
    10    15    18    1
    11    13    14   ar
    12     8     1    1
    13     1     2    1
    14     2     3    1
    15     3     4    1
    16     4    19    1
    17    19    20    1
    18    20    21    1
    19    21    22    1
    20    22    23    1
    21    23    24   ar
    22    24    25   ar
    23    25    26   ar
    24    26    27   ar
    25    27    28   ar
    26    28    29    1
    27     4     5   am
    28     5     6    2
    29    14     9   ar
    30     5     1   am
    31    29    21    1
    32    28    23   ar
@<TRIPOS>MOLECULE
*****
 29 32 0 0 0
SMALL
GASTEIGER

@<TRIPOS>ATOM
      1 N         138.5013  139.3861  164.9075 N.am    1  UNL1       -0.2602
      2 C         138.8844  138.2916  163.9561 C.3     1  UNL1        0.1167
      3 C         138.6891  138.8021  162.5592 C.3     1  UNL1        0.1165
      4 N         138.1853  140.2123  162.6473 N.am    1  UNL1       -0.2609
      5 C         138.0692  140.5731  164.0986 C.2     1  UNL1        0.3075
      6 O         137.6029  141.8899  164.6452 O.2     1  UNL1       -0.2523
      7 C         137.5647  138.4380  167.1376 C.3     1  UNL1        0.0265
      8 C         138.5429  139.3074  166.4048 C.3     1  UNL1        0.0994
      9 C         139.5629  140.0981  167.1692 C.ar    1  UNL1       -0.0043
     10 C         139.4428  140.2366  168.6580 C.ar    1  UNL1       -0.0027
     11 C         140.4627  141.0273  169.4225 C.ar    1  UNL1       -0.0003
     12 C         141.6029  141.6795  168.6982 C.ar    1  UNL1        0.0038
     13 C         141.7231  141.5410  167.2095 C.ar    1  UNL1        0.0712
     14 C         140.7031  140.7503  166.4450 C.ar    1  UNL1        0.0012
     15 C         142.8633  142.1933  166.4852 C.3     1  UNL1        0.4186
     16 F         144.0035  142.8455  165.7609 F       1  UNL1       -0.1659
     17 F         143.5172  142.5078  167.7980 F       1  UNL1       -0.1659
     18 F         142.2093  141.8788  165.1724 F       1  UNL1       -0.1659
     19 C         137.8554  141.1048  161.4877 C.3     1  UNL1        0.1123
     20 C         138.1193  142.5786  161.5769 C.3     1  UNL1        0.0944
     21 N         139.4825  143.0748  161.9583 N.3     1  UNL1       -0.2637
     22 C         140.7878  142.5662  161.4222 C.3     1  UNL1        0.0992
     23 C         141.8918  143.3437  162.0754 C.ar    1  UNL1       -0.0088
     24 C         143.3839  143.2788  161.9358 C.ar    1  UNL1       -0.0032
     25 C         144.2529  144.2030  162.7361 C.ar    1  UNL1       -0.0003
     26 C         143.6299  145.1922  163.6760 C.ar    1  UNL1       -0.0003
     27 C         142.1378  145.2571  163.8156 C.ar    1  UNL1       -0.0032
     28 C         141.2688  144.3329  163.0153 C.ar    1  UNL1       -0.0088
     29 C         139.7798  144.1666  162.9430 C.3     1  UNL1        0.0992
@<TRIPOS>BOND
     1     7     8    1
     2     8     9    1
     3     9    10   ar
     4    10    11   ar
     5    11    12   ar
     6    12    13   ar
     7    13    15    1
     8    15    16    1
     9    15    17    1
    10    15    18    1
    11    13    14   ar
    12     8     1    1
    13     1     2    1
    14     2     3    1
    15     3     4    1
    16     4    19    1
    17    19    20    1
    18    20    21    1
    19    21    22    1
    20    22    23    1
    21    23    24   ar
    22    24    25   ar
    23    25    26   ar
    24    26    27   ar
    25    27    28   ar
    26    28    29    1
    27     4     5   am
    28     5     6    2
    29    14     9   ar
    30     5     1   am
    31    29    21    1
    32    28    23   ar
@<TRIPOS>MOLECULE
*****
 29 32 0 0 0
SMALL
GASTEIGER

@<TRIPOS>ATOM
      1 N         141.4440  138.9184  165.0023 N.am    1  UNL1       -0.2602
      2 C         140.2771  139.0808  165.9308 C.3     1  UNL1        0.1167
      3 C         139.0347  138.6896  165.1868 C.3     1  UNL1        0.1165
      4 N         139.4338  138.2854  163.7984 N.am    1  UNL1       -0.2609
      5 C         140.9228  138.4268  163.6845 C.2     1  UNL1        0.3075
      6 O         141.7460  138.1289  162.4664 O.2     1  UNL1       -0.2523
      7 C         143.6409  138.2609  166.2233 C.3     1  UNL1        0.0265
      8 C         142.8798  139.1984  165.3335 C.3     1  UNL1        0.0994
      9 C         143.5547  140.4160  164.7749 C.ar    1  UNL1       -0.0043
     10 C         144.9545  140.3208  164.2446 C.ar    1  UNL1       -0.0027
     11 C         145.6294  141.5385  163.6860 C.ar    1  UNL1       -0.0003
     12 C         144.9043  142.8513  163.6577 C.ar    1  UNL1        0.0038
     13 C         143.5045  142.9465  164.1881 C.ar    1  UNL1        0.0712
     14 C         142.8296  141.7288  164.7467 C.ar    1  UNL1        0.0012
     15 C         142.7794  144.2593  164.1598 C.3     1  UNL1        0.4186
     16 F         142.0544  145.5722  164.1316 F       1  UNL1       -0.1659
     17 F         141.4851  143.5502  164.4278 F       1  UNL1       -0.1659
     18 F         144.0738  144.9683  163.8918 F       1  UNL1       -0.1659
     19 C         138.5067  137.8213  162.7145 C.3     1  UNL1        0.1123
     20 C         137.8459  138.8219  161.8134 C.3     1  UNL1        0.0944
     21 N         138.2059  140.2746  161.9141 N.3     1  UNL1       -0.2637
     22 C         139.3372  140.9541  161.2011 C.3     1  UNL1        0.0992
     23 C         139.3283  142.4023  161.5918 C.ar    1  UNL1       -0.0088
     24 C         140.2084  143.5526  161.2018 C.ar    1  UNL1       -0.0032
     25 C         139.9517  144.9183  161.7663 C.ar    1  UNL1       -0.0003
     26 C         138.8149  145.1339  162.7207 C.ar    1  UNL1       -0.0003
     27 C         137.9347  143.9836  163.1108 C.ar    1  UNL1       -0.0032
     28 C         138.1914  142.6179  162.5463 C.ar    1  UNL1       -0.0088
     29 C         137.4977  141.3029  162.7455 C.3     1  UNL1        0.0992
@<TRIPOS>BOND
     1     7     8    1
     2     8     9    1
     3     9    10   ar
     4    10    11   ar
     5    11    12   ar
     6    12    13   ar
     7    13    15    1
     8    15    16    1
     9    15    17    1
    10    15    18    1
    11    13    14   ar
    12     8     1    1
    13     1     2    1
    14     2     3    1
    15     3     4    1
    16     4    19    1
    17    19    20    1
    18    20    21    1
    19    21    22    1
    20    22    23    1
    21    23    24   ar
    22    24    25   ar
    23    25    26   ar
    24    26    27   ar
    25    27    28   ar
    26    28    29    1
    27     4     5   am
    28     5     6    2
    29    14     9   ar
    30     5     1   am
    31    29    21    1
    32    28    23   ar
@<TRIPOS>MOLECULE
*****
 29 32 0 0 0
SMALL
GASTEIGER

@<TRIPOS>ATOM
      1 N         143.7273  139.9043  164.7272 N.am    1  UNL1       -0.2602
      2 C         144.0946  139.3431  163.3855 C.3     1  UNL1        0.1167
      3 C         144.5239  140.4818  162.5084 C.3     1  UNL1        0.1165
      4 N         144.4218  141.7468  163.3081 N.am    1  UNL1       -0.2609
      5 C         143.9296  141.3899  164.6794 C.2     1  UNL1        0.3075
      6 O         143.6828  142.3499  165.8052 O.2     1  UNL1       -0.2523
      7 C         144.0713  137.9910  166.4508 C.3     1  UNL1        0.0265
      8 C         143.2428  139.1181  165.9091 C.3     1  UNL1        0.0994
      9 C         141.9298  139.4589  166.5494 C.ar    1  UNL1       -0.0043
     10 C         140.6988  139.6041  165.7047 C.ar    1  UNL1       -0.0027
     11 C         139.3858  139.9449  166.3450 C.ar    1  UNL1       -0.0003
     12 C         139.3038  140.1404  167.8299 C.ar    1  UNL1        0.0038
     13 C         140.5349  139.9952  168.6746 C.ar    1  UNL1        0.0712
     14 C         141.8479  139.6544  168.0343 C.ar    1  UNL1        0.0012
     15 C         140.4529  140.1907  170.1595 C.3     1  UNL1        0.4186
     16 F         140.3709  140.3863  171.6445 F       1  UNL1       -0.1659
     17 F         141.4265  139.0676  170.3611 F       1  UNL1       -0.1659
     18 F         139.4794  141.3139  169.9578 F       1  UNL1       -0.1659
     19 C         144.7539  143.1264  162.8219 C.3     1  UNL1        0.1123
     20 C         143.6674  144.0197  162.3009 C.3     1  UNL1        0.0944
     21 N         142.2707  143.8906  162.8327 N.3     1  UNL1       -0.2637
     22 C         141.5953  144.8409  163.7765 C.3     1  UNL1        0.0992
     23 C         140.2115  144.3262  164.0412 C.ar    1  UNL1       -0.0088
     24 C         139.0920  144.8486  164.8919 C.ar    1  UNL1       -0.0032
     25 C         137.7926  144.1026  164.9623 C.ar    1  UNL1       -0.0003
     26 C         137.6127  142.8342  164.1821 C.ar    1  UNL1       -0.0003
     27 C         138.7322  142.3117  163.3315 C.ar    1  UNL1       -0.0032
     28 C         140.0316  143.0578  163.2610 C.ar    1  UNL1       -0.0088
     29 C         141.3043  142.7886  162.5141 C.3     1  UNL1        0.0992
@<TRIPOS>BOND
     1     7     8    1
     2     8     9    1
     3     9    10   ar
     4    10    11   ar
     5    11    12   ar
     6    12    13   ar
     7    13    15    1
     8    15    16    1
     9    15    17    1
    10    15    18    1
    11    13    14   ar
    12     8     1    1
    13     1     2    1
    14     2     3    1
    15     3     4    1
    16     4    19    1
    17    19    20    1
    18    20    21    1
    19    21    22    1
    20    22    23    1
    21    23    24   ar
    22    24    25   ar
    23    25    26   ar
    24    26    27   ar
    25    27    28   ar
    26    28    29    1
    27     4     5   am
    28     5     6    2
    29    14     9   ar
    30     5     1   am
    31    29    21    1
    32    28    23   ar
@<TRIPOS>MOLECULE
*****
 29 32 0 0 0
SMALL
GASTEIGER

@<TRIPOS>ATOM
      1 N         140.8872  143.8986  164.0282 N.am    1  UNL1       -0.2602
      2 C         140.6233  144.2659  162.5980 C.3     1  UNL1        0.1167
      3 C         141.9217  144.1839  161.8512 C.3     1  UNL1        0.1165
      4 N         142.9880  143.7659  162.8199 N.am    1  UNL1       -0.2609
      5 C         142.3486  143.5896  164.1653 C.2     1  UNL1        0.3075
      6 O         143.0479  143.1768  165.4265 O.2     1  UNL1       -0.2523
      7 C         138.8937  144.9762  165.2987 C.3     1  UNL1        0.0265
      8 C         139.8685  143.8491  165.1280 C.3     1  UNL1        0.0994
      9 C         139.8248  142.6724  166.0573 C.ar    1  UNL1       -0.0043
     10 C         140.3670  142.7962  167.4503 C.ar    1  UNL1       -0.0027
     11 C         140.3232  141.6195  168.3795 C.ar    1  UNL1       -0.0003
     12 C         139.7372  140.3189  167.9157 C.ar    1  UNL1        0.0038
     13 C         139.1949  140.1951  166.5226 C.ar    1  UNL1        0.0712
     14 C         139.2387  141.3719  165.5934 C.ar    1  UNL1        0.0012
     15 C         138.6089  138.8946  166.0588 C.3     1  UNL1        0.4186
     16 F         138.0229  137.5940  165.5949 F       1  UNL1       -0.1659
     17 F         138.1956  138.5791  167.4658 F       1  UNL1       -0.1659
     18 F         139.0222  139.2101  164.6518 F       1  UNL1       -0.1659
     19 C         144.4389  143.5603  162.4994 C.3     1  UNL1        0.1123
     20 C         145.0249  142.1799  162.5279 C.3     1  UNL1        0.0944
     21 N         144.1581  141.0039  162.8679 N.3     1  UNL1       -0.2637
     22 C         143.2738  140.2555  161.9151 C.3     1  UNL1        0.0992
     23 C         142.5925  139.1589  162.6788 C.ar    1  UNL1       -0.0088
     24 C         141.6102  138.1052  162.2608 C.ar    1  UNL1       -0.0032
     25 C         141.0911  137.1221  163.2678 C.ar    1  UNL1       -0.0003
     26 C         141.5544  137.1927  164.6927 C.ar    1  UNL1       -0.0003
     27 C         142.5367  138.2464  165.1107 C.ar    1  UNL1       -0.0032
     28 C         143.0557  139.2295  164.1037 C.ar    1  UNL1       -0.0088
     29 C         144.0233  140.3698  164.2206 C.3     1  UNL1        0.0992
@<TRIPOS>BOND
     1     7     8    1
     2     8     9    1
     3     9    10   ar
     4    10    11   ar
     5    11    12   ar
     6    12    13   ar
     7    13    15    1
     8    15    16    1
     9    15    17    1
    10    15    18    1
    11    13    14   ar
    12     8     1    1
    13     1     2    1
    14     2     3    1
    15     3     4    1
    16     4    19    1
    17    19    20    1
    18    20    21    1
    19    21    22    1
    20    22    23    1
    21    23    24   ar
    22    24    25   ar
    23    25    26   ar
    24    26    27   ar
    25    27    28   ar
    26    28    29    1
    27     4     5   am
    28     5     6    2
    29    14     9   ar
    30     5     1   am
    31    29    21    1
    32    28    23   ar
@<TRIPOS>MOLECULE
*****
 29 32 0 0 0
SMALL
GASTEIGER

@<TRIPOS>ATOM
      1 N         138.5902  139.6650  164.9217 N.am    1  UNL1       -0.2602
      2 C         138.0874  140.8916  164.2199 C.3     1  UNL1        0.1167
      3 C         138.2439  140.6779  162.7434 C.3     1  UNL1        0.1165
      4 N         138.8435  139.3191  162.5328 N.am    1  UNL1       -0.2609
      5 C         139.0575  138.6931  163.8790 C.2     1  UNL1        0.3075
      6 O         139.6371  137.3339  164.1372 O.2     1  UNL1       -0.2523
      7 C         137.6442  138.5068  167.0462 C.3     1  UNL1        0.0265
      8 C         138.6205  139.4483  166.4056 C.3     1  UNL1        0.0994
      9 C         139.6271  140.1732  167.2490 C.ar    1  UNL1       -0.0043
     10 C         139.4565  140.2294  168.7382 C.ar    1  UNL1       -0.0027
     11 C         140.4631  140.9543  169.5816 C.ar    1  UNL1       -0.0003
     12 C         141.6403  141.6230  168.9358 C.ar    1  UNL1        0.0038
     13 C         141.8108  141.5668  167.4466 C.ar    1  UNL1        0.0712
     14 C         140.8042  140.8419  166.6032 C.ar    1  UNL1        0.0012
     15 C         142.9880  142.2355  166.8008 C.3     1  UNL1        0.4186
     16 F         144.1652  142.9043  166.1550 F       1  UNL1       -0.1659
     17 F         142.4828  141.8210  165.4507 F       1  UNL1       -0.1659
     18 F         143.4932  142.6501  168.1509 F       1  UNL1       -0.1659
     19 C         139.1714  138.6958  161.2084 C.3     1  UNL1        0.1123
     20 C         140.5855  138.3092  160.8910 C.3     1  UNL1        0.0944
     21 N         141.7257  139.0503  161.5240 N.3     1  UNL1       -0.2637
     22 C         142.6059  138.5395  162.6259 C.3     1  UNL1        0.0992
     23 C         143.6102  139.6058  162.9491 C.ar    1  UNL1       -0.0088
     24 C         144.7274  139.6627  163.9484 C.ar    1  UNL1       -0.0032
     25 C         145.5850  140.8894  164.0454 C.ar    1  UNL1       -0.0003
     26 C         145.3254  142.0593  163.1433 C.ar    1  UNL1       -0.0003
     27 C         144.2082  142.0025  162.1440 C.ar    1  UNL1       -0.0032
     28 C         143.3506  140.7757  162.0470 C.ar    1  UNL1       -0.0088
     29 C         142.1859  140.4324  161.1662 C.3     1  UNL1        0.0992
@<TRIPOS>BOND
     1     7     8    1
     2     8     9    1
     3     9    10   ar
     4    10    11   ar
     5    11    12   ar
     6    12    13   ar
     7    13    15    1
     8    15    16    1
     9    15    17    1
    10    15    18    1
    11    13    14   ar
    12     8     1    1
    13     1     2    1
    14     2     3    1
    15     3     4    1
    16     4    19    1
    17    19    20    1
    18    20    21    1
    19    21    22    1
    20    22    23    1
    21    23    24   ar
    22    24    25   ar
    23    25    26   ar
    24    26    27   ar
    25    27    28   ar
    26    28    29    1
    27     4     5   am
    28     5     6    2
    29    14     9   ar
    30     5     1   am
    31    29    21    1
    32    28    23   ar
@<TRIPOS>MOLECULE
*****
 29 32 0 0 0
SMALL
GASTEIGER

@<TRIPOS>ATOM
      1 N         142.3857  143.4335  164.0628 N.am    1  UNL1       -0.2602
      2 C         142.5895  143.6569  162.5936 C.3     1  UNL1        0.1167
      3 C         141.3033  144.1741  162.0206 C.3     1  UNL1        0.1165
      4 N         140.3046  144.2703  163.1358 N.am    1  UNL1       -0.2609
      5 C         140.9736  143.8127  164.3979 C.2     1  UNL1        0.3075
      6 O         140.3415  143.7458  165.7565 O.2     1  UNL1       -0.2523
      7 C         144.5639  143.7946  165.4322 C.3     1  UNL1        0.0265
      8 C         143.4136  142.9211  165.0275 C.3     1  UNL1        0.0994
      9 C         143.2912  141.5350  165.5877 C.ar    1  UNL1       -0.0043
     10 C         143.9053  140.3754  164.8609 C.ar    1  UNL1       -0.0027
     11 C         143.7829  138.9893  165.4210 C.ar    1  UNL1       -0.0003
     12 C         143.0464  138.7627  166.7079 C.ar    1  UNL1        0.0038
     13 C         142.4324  139.9223  167.4347 C.ar    1  UNL1        0.0712
     14 C         142.5548  141.3084  166.8746 C.ar    1  UNL1        0.0012
     15 C         141.6959  139.6958  168.7217 C.3     1  UNL1        0.4186
     16 F         140.9594  139.4692  170.0087 F       1  UNL1       -0.1659
     17 F         140.3938  139.9474  168.0208 F       1  UNL1       -0.1659
     18 F         142.9980  139.4441  169.4225 F       1  UNL1       -0.1659
     19 C         138.8861  144.7415  163.0107 C.3     1  UNL1        0.1123
     20 C         137.7636  143.7466  162.9990 C.3     1  UNL1        0.0944
     21 N         138.0306  142.3106  163.3402 N.3     1  UNL1       -0.2637
     22 C         137.9524  141.7001  164.7082 C.3     1  UNL1        0.0992
     23 C         138.2962  140.2451  164.5868 C.ar    1  UNL1       -0.0088
     24 C         138.3821  139.1459  165.6038 C.ar    1  UNL1       -0.0032
     25 C         138.7587  137.7578  165.1779 C.ar    1  UNL1       -0.0003
     26 C         139.0493  137.4690  163.7349 C.ar    1  UNL1       -0.0003
     27 C         138.9634  138.5682  162.7179 C.ar    1  UNL1       -0.0032
     28 C         138.5868  139.9562  163.1439 C.ar    1  UNL1       -0.0088
     29 C         138.4227  141.2328  162.3735 C.3     1  UNL1        0.0992
@<TRIPOS>BOND
     1     7     8    1
     2     8     9    1
     3     9    10   ar
     4    10    11   ar
     5    11    12   ar
     6    12    13   ar
     7    13    15    1
     8    15    16    1
     9    15    17    1
    10    15    18    1
    11    13    14   ar
    12     8     1    1
    13     1     2    1
    14     2     3    1
    15     3     4    1
    16     4    19    1
    17    19    20    1
    18    20    21    1
    19    21    22    1
    20    22    23    1
    21    23    24   ar
    22    24    25   ar
    23    25    26   ar
    24    26    27   ar
    25    27    28   ar
    26    28    29    1
    27     4     5   am
    28     5     6    2
    29    14     9   ar
    30     5     1   am
    31    29    21    1
    32    28    23   ar
@<TRIPOS>MOLECULE
*****
 29 32 0 0 0
SMALL
GASTEIGER

@<TRIPOS>ATOM
      1 N         139.0321  142.5066  163.9767 N.am    1  UNL1       -0.2602
      2 C         138.8942  142.9211  162.5418 C.3     1  UNL1        0.1167
      3 C         138.4574  141.7224  161.7529 C.3     1  UNL1        0.1165
      4 N         138.3253  140.5670  162.7004 N.am    1  UNL1       -0.2609
      5 C         138.6805  141.0517  164.0748 C.2     1  UNL1        0.3075
      6 O         138.6836  140.2264  165.3273 O.2     1  UNL1       -0.2523
      7 C         138.7322  144.6869  165.3574 C.3     1  UNL1        0.0265
      8 C         139.4484  143.3917  165.1139 C.3     1  UNL1        0.0994
      9 C         140.5811  142.9814  166.0077 C.ar    1  UNL1       -0.0043
     10 C         141.9242  142.6655  165.4193 C.ar    1  UNL1       -0.0027
     11 C         143.0569  142.2553  166.3131 C.ar    1  UNL1       -0.0003
     12 C         142.8464  142.1610  167.7952 C.ar    1  UNL1        0.0038
     13 C         141.5033  142.4768  168.3836 C.ar    1  UNL1        0.0712
     14 C         140.3706  142.8871  167.4898 C.ar    1  UNL1        0.0012
     15 C         141.2929  142.3825  169.8657 C.3     1  UNL1        0.4186
     16 F         141.0824  142.2881  171.3480 F       1  UNL1       -0.1659
     17 F         141.3186  143.8790  169.9647 F       1  UNL1       -0.1659
     18 F         141.2671  140.8860  169.7668 F       1  UNL1       -0.1659
     19 C         137.9108  139.1719  162.3372 C.3     1  UNL1        0.1123
     20 C         138.9017  138.0490  162.4224 C.3     1  UNL1        0.0944
     21 N         140.2513  138.2843  163.0333 N.3     1  UNL1       -0.2637
     22 C         140.6748  137.8861  164.4160 C.3     1  UNL1        0.0992
     23 C         142.0996  138.3148  164.6060 C.ar    1  UNL1       -0.0088
     24 C         143.0398  138.1870  165.7677 C.ar    1  UNL1       -0.0032
     25 C         144.4371  138.7224  165.6640 C.ar    1  UNL1       -0.0003
     26 C         144.8943  139.3856  164.3986 C.ar    1  UNL1       -0.0003
     27 C         143.9540  139.5134  163.2369 C.ar    1  UNL1       -0.0032
     28 C         142.5567  138.9780  163.3406 C.ar    1  UNL1       -0.0088
     29 C         141.4144  138.9591  162.3686 C.3     1  UNL1        0.0992
@<TRIPOS>BOND
     1     7     8    1
     2     8     9    1
     3     9    10   ar
     4    10    11   ar
     5    11    12   ar
     6    12    13   ar
     7    13    15    1
     8    15    16    1
     9    15    17    1
    10    15    18    1
    11    13    14   ar
    12     8     1    1
    13     1     2    1
    14     2     3    1
    15     3     4    1
    16     4    19    1
    17    19    20    1
    18    20    21    1
    19    21    22    1
    20    22    23    1
    21    23    24   ar
    22    24    25   ar
    23    25    26   ar
    24    26    27   ar
    25    27    28   ar
    26    28    29    1
    27     4     5   am
    28     5     6    2
    29    14     9   ar
    30     5     1   am
    31    29    21    1
    32    28    23   ar
@<TRIPOS>MOLECULE
*****
 29 32 0 0 0
SMALL
GASTEIGER

@<TRIPOS>ATOM
      1 N         138.5284  140.8553  164.9689 N.am    1  UNL1       -0.2602
      2 C         137.7626  140.6313  163.6987 C.3     1  UNL1        0.1167
      3 C         137.6766  141.9409  162.9723 C.3     1  UNL1        0.1165
      4 N         138.3892  142.9742  163.7937 N.am    1  UNL1       -0.2609
      5 C         138.9156  142.3032  165.0276 C.2     1  UNL1        0.3075
      6 O         139.6928  142.9641  166.1272 O.2     1  UNL1       -0.2523
      7 C         137.7819  138.8755  166.4766 C.3     1  UNL1        0.0265
      8 C         138.8503  139.8140  165.9995 C.3     1  UNL1        0.0994
      9 C         140.2407  139.7113  166.5529 C.ar    1  UNL1       -0.0043
     10 C         140.4756  139.8724  168.0256 C.ar    1  UNL1       -0.0027
     11 C         141.8660  139.7697  168.5790 C.ar    1  UNL1       -0.0003
     12 C         143.0215  139.5058  167.6597 C.ar    1  UNL1        0.0038
     13 C         142.7866  139.3447  166.1870 C.ar    1  UNL1        0.0712
     14 C         141.3962  139.4474  165.6336 C.ar    1  UNL1        0.0012
     15 C         143.9421  139.0808  165.2678 C.3     1  UNL1        0.4186
     16 F         145.0977  138.8169  164.3484 F       1  UNL1       -0.1659
     17 F         144.5660  138.1959  166.3059 F       1  UNL1       -0.1659
     18 F         143.3183  139.9656  164.2296 F       1  UNL1       -0.1659
     19 C         138.5476  144.4240  163.4426 C.3     1  UNL1        0.1123
     20 C         139.7266  144.8750  162.6325 C.3     1  UNL1        0.0944
     21 N         141.0639  144.2243  162.8278 N.3     1  UNL1       -0.2637
     22 C         141.8852  144.2563  164.0826 C.3     1  UNL1        0.0992
     23 C         143.1436  143.4791  163.8330 C.ar    1  UNL1       -0.0088
     24 C         144.3235  143.1718  164.7067 C.ar    1  UNL1       -0.0032
     25 C         145.4599  142.3520  164.1713 C.ar    1  UNL1       -0.0003
     26 C         145.4163  141.8396  162.7622 C.ar    1  UNL1       -0.0003
     27 C         144.2365  142.1470  161.8885 C.ar    1  UNL1       -0.0032
     28 C         143.1001  142.9667  162.4239 C.ar    1  UNL1       -0.0088
     29 C         141.8148  143.4272  161.8027 C.3     1  UNL1        0.0992
@<TRIPOS>BOND
     1     7     8    1
     2     8     9    1
     3     9    10   ar
     4    10    11   ar
     5    11    12   ar
     6    12    13   ar
     7    13    15    1
     8    15    16    1
     9    15    17    1
    10    15    18    1
    11    13    14   ar
    12     8     1    1
    13     1     2    1
    14     2     3    1
    15     3     4    1
    16     4    19    1
    17    19    20    1
    18    20    21    1
    19    21    22    1
    20    22    23    1
    21    23    24   ar
    22    24    25   ar
    23    25    26   ar
    24    26    27   ar
    25    27    28   ar
    26    28    29    1
    27     4     5   am
    28     5     6    2
    29    14     9   ar
    30     5     1   am
    31    29    21    1
    32    28    23   ar
