@<TRIPOS>MOLECULE
*****
 41 43 0 0 0
SMALL
GASTEIGER

@<TRIPOS>ATOM
      1 C         139.3478  139.7315  160.7809 C.ar    1  UNL1        0.0597
      2 C         139.2372  138.8823  162.0123 C.ar    1  UNL1        0.0422
      3 C         138.5737  139.4275  163.2422 C.ar    1  UNL1        0.1485
      4 C         138.0208  140.8219  163.2406 C.ar    1  UNL1        0.0743
      5 C         138.1315  141.6711  162.0091 C.ar    1  UNL1        0.1417
      6 C         138.7950  141.1259  160.7793 C.ar    1  UNL1        0.0416
      7 N         141.5017  139.0209  159.5136 N.am    1  UNL1       -0.2644
      8 C         140.0113  139.1864  159.5510 C.2     1  UNL1        0.2508
      9 O         139.1844  138.8068  158.3584 O.2     1  UNL1       -0.2698
     10 H         142.0444  139.2700  160.2963 H       1  UNL1        0.1566
     11 N         143.1642  136.9472  156.6849 N.ar    1  UNL1       -0.2357
     12 C         143.2082  138.3266  156.0972 C.ar    1  UNL1        0.0988
     13 C         142.5907  139.2714  157.0854 C.ar    1  UNL1        0.0565
     14 C         142.1652  138.4757  158.2837 C.ar    1  UNL1        0.1557
     15 N         142.5197  137.0394  158.0362 N.ar    1  UNL1       -0.1534
     16 C         143.6752  135.6955  156.0354 C.3     1  UNL1        0.2423
     17 P         142.9043  134.4152  156.1641 P.3     1  UNL1        0.3677
     18 O         142.1333  133.1349  156.2928 O.2     1  UNL1       -0.2557
     19 O         143.9466  133.8817  157.1017 O.3     1  UNL1       -0.2928
     20 C         145.2240  131.6750  156.6035 C.3     1  UNL1        0.0352
     21 C         144.1028  132.4013  157.2856 C.3     1  UNL1        0.1515
     22 O         141.8619  134.9487  155.2266 O.3     1  UNL1       -0.2928
     23 C         142.1368  135.0048  153.7530 C.3     1  UNL1        0.1515
     24 C         141.6715  133.8927  152.8604 C.3     1  UNL1        0.0352
     25 O         138.4630  138.5782  164.4737 O.3     1  UNL1       -0.4534
     26 C         139.0062  139.0769  165.7799 C.ar    1  UNL1        0.1454
     27 C         138.1315  139.0941  166.9984 C.ar    1  UNL1        0.0388
     28 C         138.6747  139.5929  168.3046 C.ar    1  UNL1        0.0215
     29 C         140.0927  140.0743  168.3924 C.ar    1  UNL1        0.1059
     30 C         140.9673  140.0571  167.1739 C.ar    1  UNL1        0.0215
     31 C         140.4241  139.5584  165.8677 C.ar    1  UNL1        0.0388
     32 S         140.6359  140.5731  169.6986 S.O2    1  UNL1        0.0105
     33 C         141.1791  141.0718  171.0048 C.3     1  UNL1        0.1816
     34 O         141.5114  141.5443  168.9636 O.2     1  UNL1       -0.1686
     35 O         139.7604  139.6018  170.4335 O.2     1  UNL1       -0.1686
     36 O         137.5786  143.0655  162.0075 O.3     1  UNL1       -0.4765
     37 C         138.2230  144.1287  162.8467 C.3     1  UNL1        0.1954
     38 C         139.2981  144.9964  162.2624 C.3     1  UNL1        0.0500
     39 C         137.7923  144.3243  164.2702 C.3     1  UNL1        0.1855
     40 O         138.8210  144.4472  165.3549 O.3     1  UNL1       -0.3473
     41 C         139.7507  143.3049  165.6397 C.3     1  UNL1        0.1743
@<TRIPOS>BOND
     1    20    21    1
     2    21    19    1
     3    19    17    1
     4    17    18    2
     5    17    16    1
     6    16    11    1
     7    11    12   ar
     8    12    13   ar
     9    13    14   ar
    10    14     7    1
    11     7     8   am
    12     8     9    2
    13     8     1    1
    14     1     2   ar
    15     2     3   ar
    16     3    25    1
    17    25    26    1
    18    26    27   ar
    19    27    28   ar
    20    28    29   ar
    21    29    32    1
    22    32    33    1
    23    32    34    2
    24    32    35    2
    25    29    30   ar
    26    30    31   ar
    27     3     4   ar
    28     4     5   ar
    29     5    36    1
    30    36    37    1
    31    37    38    1
    32    37    39    1
    33    39    40    1
    34    40    41    1
    35     5     6   ar
    36    14    15   ar
    37    17    22    1
    38    22    23    1
    39    23    24    1
    40    15    11   ar
    41     6     1   ar
    42    31    26   ar
    43     7    10    1
@<TRIPOS>MOLECULE
*****
 41 43 0 0 0
SMALL
GASTEIGER

@<TRIPOS>ATOM
      1 C         139.4249  139.9690  160.7974 C.ar    1  UNL1        0.0597
      2 C         139.3027  139.1553  162.0516 C.ar    1  UNL1        0.0422
      3 C         138.6635  139.7494  163.2716 C.ar    1  UNL1        0.1485
      4 C         138.1465  141.1570  163.2375 C.ar    1  UNL1        0.0743
      5 C         138.2688  141.9707  161.9833 C.ar    1  UNL1        0.1417
      6 C         138.9079  141.3766  160.7633 C.ar    1  UNL1        0.0416
      7 N         141.5581  139.3602  159.4451 N.am    1  UNL1       -0.2644
      8 C         140.0641  139.3749  159.5773 C.2     1  UNL1        0.2508
      9 O         139.2091  138.7956  158.4894 O.2     1  UNL1       -0.2698
     10 H         142.1192  139.7404  160.1591 H       1  UNL1        0.1566
     11 N         143.1803  137.1776  156.6755 N.ar    1  UNL1       -0.2357
     12 C         143.1815  138.5266  156.0194 C.ar    1  UNL1        0.0988
     13 C         142.5740  139.5084  156.9771 C.ar    1  UNL1        0.0565
     14 C         142.1973  138.7661  158.2250 C.ar    1  UNL1        0.1557
     15 N         142.5720  137.3257  158.0386 N.ar    1  UNL1       -0.1534
     16 C         143.6966  135.9043  156.0741 C.3     1  UNL1        0.2423
     17 P         142.7758  134.7347  155.8889 P.3     1  UNL1        0.3677
     18 O         141.8550  133.5652  155.7039 O.2     1  UNL1       -0.2557
     19 O         142.2896  135.3218  154.5971 O.3     1  UNL1       -0.2928
     20 C         140.0793  136.5245  155.2435 C.3     1  UNL1        0.0352
     21 C         140.8226  135.5480  154.3811 C.3     1  UNL1        0.1515
     22 O         143.2619  134.1476  157.1809 O.3     1  UNL1       -0.2928
     23 C         143.8146  132.7534  157.2101 C.3     1  UNL1        0.1515
     24 C         145.0988  132.4707  157.9319 C.3     1  UNL1        0.0352
     25 O         138.5413  138.9357  164.5259 O.3     1  UNL1       -0.4534
     26 C         139.4201  139.2365  165.7036 C.ar    1  UNL1        0.1454
     27 C         138.8072  139.6089  167.0211 C.ar    1  UNL1        0.0388
     28 C         139.6861  139.9097  168.1989 C.ar    1  UNL1        0.0215
     29 C         141.1779  139.8382  168.0591 C.ar    1  UNL1        0.1059
     30 C         141.7908  139.4658  166.7416 C.ar    1  UNL1        0.0215
     31 C         140.9119  139.1650  165.5639 C.ar    1  UNL1        0.0388
     32 S         142.0568  140.1390  169.2368 S.O2    1  UNL1        0.0105
     33 C         142.9357  140.4398  170.4146 C.3     1  UNL1        0.1816
     34 O         141.1159  141.2275  169.6609 O.2     1  UNL1       -0.1686
     35 O         142.9977  139.0505  168.8127 O.2     1  UNL1       -0.1686
     36 O         137.7518  143.3784  161.9492 O.3     1  UNL1       -0.4765
     37 C         138.3604  144.4226  162.8375 C.3     1  UNL1        0.1954
     38 C         138.0919  144.4010  164.3132 C.3     1  UNL1        0.0500
     39 C         139.2374  145.4885  162.2503 C.3     1  UNL1        0.1855
     40 O         139.7017  145.3785  160.8282 O.3     1  UNL1       -0.3473
     41 C         140.9057  144.5484  160.4944 C.3     1  UNL1        0.1743
@<TRIPOS>BOND
     1    20    21    1
     2    21    19    1
     3    19    17    1
     4    17    18    2
     5    17    16    1
     6    16    11    1
     7    11    12   ar
     8    12    13   ar
     9    13    14   ar
    10    14     7    1
    11     7     8   am
    12     8     9    2
    13     8     1    1
    14     1     2   ar
    15     2     3   ar
    16     3    25    1
    17    25    26    1
    18    26    27   ar
    19    27    28   ar
    20    28    29   ar
    21    29    32    1
    22    32    33    1
    23    32    34    2
    24    32    35    2
    25    29    30   ar
    26    30    31   ar
    27     3     4   ar
    28     4     5   ar
    29     5    36    1
    30    36    37    1
    31    37    38    1
    32    37    39    1
    33    39    40    1
    34    40    41    1
    35     5     6   ar
    36    14    15   ar
    37    17    22    1
    38    22    23    1
    39    23    24    1
    40    15    11   ar
    41     6     1   ar
    42    31    26   ar
    43     7    10    1
@<TRIPOS>MOLECULE
*****
 41 43 0 0 0
SMALL
GASTEIGER

@<TRIPOS>ATOM
      1 C         138.4748  140.4901  160.8893 C.ar    1  UNL1        0.0597
      2 C         138.4706  139.5576  162.0641 C.ar    1  UNL1        0.0422
      3 C         138.2071  140.0885  163.4420 C.ar    1  UNL1        0.1485
      4 C         137.9477  141.5519  163.6451 C.ar    1  UNL1        0.0743
      5 C         137.9518  142.4844  162.4702 C.ar    1  UNL1        0.1417
      6 C         138.2154  141.9535  161.0923 C.ar    1  UNL1        0.0416
      7 N         140.0752  139.3657  159.1792 N.am    1  UNL1       -0.2644
      8 C         138.7383  139.9593  159.5113 C.2     1  UNL1        0.2508
      9 O         137.6649  140.0220  158.4654 O.2     1  UNL1       -0.2698
     10 H         140.7798  139.3246  159.8656 H       1  UNL1        0.1566
     11 N         140.7046  137.3166  155.9433 N.ar    1  UNL1       -0.2357
     12 C         140.7841  138.7195  155.4181 C.ar    1  UNL1        0.0988
     13 C         140.5580  139.6578  156.5664 C.ar    1  UNL1        0.0565
     14 C         140.3388  138.8349  157.8012 C.ar    1  UNL1        0.1557
     15 N         140.4294  137.3880  157.4161 N.ar    1  UNL1       -0.1534
     16 C         140.8711  136.0627  155.1373 C.3     1  UNL1        0.2423
     17 P         141.9943  135.1171  155.4444 P.3     1  UNL1        0.3677
     18 O         143.1175  134.1717  155.7516 O.2     1  UNL1       -0.2557
     19 O         141.2275  133.9982  154.8042 O.3     1  UNL1       -0.2928
     20 C         140.6300  131.4735  154.6665 C.3     1  UNL1        0.0352
     21 C         141.4558  132.5832  155.2466 C.3     1  UNL1        0.1515
     22 O         142.7611  136.2362  156.0847 O.3     1  UNL1       -0.2928
     23 C         144.1507  136.5558  155.6189 C.3     1  UNL1        0.1515
     24 C         144.4560  137.9058  155.0407 C.3     1  UNL1        0.0352
     25 O         138.2030  139.1560  164.6170 O.3     1  UNL1       -0.4534
     26 C         139.1475  139.3849  165.7595 C.ar    1  UNL1        0.1454
     27 C         140.6287  139.3063  165.5354 C.ar    1  UNL1        0.0388
     28 C         141.5733  139.5352  166.6779 C.ar    1  UNL1        0.0215
     29 C         141.0367  139.8428  168.0445 C.ar    1  UNL1        0.1059
     30 C         139.5556  139.9215  168.2686 C.ar    1  UNL1        0.0215
     31 C         138.6111  139.6925  167.1261 C.ar    1  UNL1        0.0388
     32 S         141.9813  140.0718  169.1871 S.O2    1  UNL1        0.0105
     33 C         142.9259  140.3007  170.3296 C.3     1  UNL1        0.1816
     34 O         140.9184  140.8437  169.9111 O.2     1  UNL1       -0.1686
     35 O         143.0442  139.2998  168.4630 O.2     1  UNL1       -0.1686
     36 O         137.6924  143.9478  162.6732 O.3     1  UNL1       -0.4765
     37 C         138.7040  144.7973  163.3838 C.3     1  UNL1        0.1954
     38 C         138.6848  144.8924  164.8807 C.3     1  UNL1        0.0500
     39 C         139.7349  145.5517  162.5975 C.3     1  UNL1        0.1855
     40 O         139.4683  145.9166  161.1672 O.3     1  UNL1       -0.3473
     41 C         140.2431  145.2535  160.0671 C.3     1  UNL1        0.1743
@<TRIPOS>BOND
     1    20    21    1
     2    21    19    1
     3    19    17    1
     4    17    18    2
     5    17    16    1
     6    16    11    1
     7    11    12   ar
     8    12    13   ar
     9    13    14   ar
    10    14     7    1
    11     7     8   am
    12     8     9    2
    13     8     1    1
    14     1     2   ar
    15     2     3   ar
    16     3    25    1
    17    25    26    1
    18    26    27   ar
    19    27    28   ar
    20    28    29   ar
    21    29    32    1
    22    32    33    1
    23    32    34    2
    24    32    35    2
    25    29    30   ar
    26    30    31   ar
    27     3     4   ar
    28     4     5   ar
    29     5    36    1
    30    36    37    1
    31    37    38    1
    32    37    39    1
    33    39    40    1
    34    40    41    1
    35     5     6   ar
    36    14    15   ar
    37    17    22    1
    38    22    23    1
    39    23    24    1
    40    15    11   ar
    41     6     1   ar
    42    31    26   ar
    43     7    10    1
@<TRIPOS>MOLECULE
*****
 41 43 0 0 0
SMALL
GASTEIGER

@<TRIPOS>ATOM
      1 C         142.1131  140.2280  160.7460 C.ar    1  UNL1        0.0597
      2 C         141.3524  139.5741  161.8612 C.ar    1  UNL1        0.0422
      3 C         140.6707  140.4160  162.8986 C.ar    1  UNL1        0.1485
      4 C         140.7497  141.9119  162.8209 C.ar    1  UNL1        0.0743
      5 C         141.5104  142.5659  161.7057 C.ar    1  UNL1        0.1417
      6 C         142.1921  141.7239  160.6683 C.ar    1  UNL1        0.0416
      7 N         142.1296  139.1398  158.3868 N.am    1  UNL1       -0.2644
      8 C         142.7948  139.3860  159.7085 C.2     1  UNL1        0.2508
      9 O         144.1418  138.7903  159.9927 O.2     1  UNL1       -0.2698
     10 H         141.2455  139.5308  158.2003 H       1  UNL1        0.1566
     11 N         143.6061  136.3820  156.0890 N.ar    1  UNL1       -0.2357
     12 C         144.1148  137.6226  155.4165 C.ar    1  UNL1        0.0988
     13 C         143.6236  138.8067  156.1955 C.ar    1  UNL1        0.0565
     14 C         142.8113  138.2978  157.3493 C.ar    1  UNL1        0.1557
     15 N         142.8005  136.7993  157.2835 N.ar    1  UNL1       -0.1534
     16 C         143.8586  134.9717  155.6449 C.3     1  UNL1        0.2423
     17 P         143.1044  133.8397  156.2773 P.3     1  UNL1        0.3677
     18 O         142.3503  132.7078  156.9097 O.2     1  UNL1       -0.2557
     19 O         141.9800  134.0464  155.3063 O.3     1  UNL1       -0.2928
     20 C         141.0953  134.0637  152.8636 C.3     1  UNL1        0.0352
     21 C         142.2359  133.9521  153.8313 C.3     1  UNL1        0.1515
     22 O         144.2289  133.6331  157.2484 O.3     1  UNL1       -0.2928
     23 C         144.7432  132.2499  157.5171 C.3     1  UNL1        0.1515
     24 C         145.2572  131.4081  156.3870 C.3     1  UNL1        0.0352
     25 O         139.9099  139.7621  164.0138 O.3     1  UNL1       -0.4534
     26 C         140.3778  139.9141  165.4309 C.ar    1  UNL1        0.1454
     27 C         141.8212  139.6901  165.7722 C.ar    1  UNL1        0.0388
     28 C         142.2891  139.8421  167.1892 C.ar    1  UNL1        0.0215
     29 C         141.3135  140.2180  168.2649 C.ar    1  UNL1        0.1059
     30 C         139.8702  140.4419  167.9236 C.ar    1  UNL1        0.0215
     31 C         139.4023  140.2900  166.5066 C.ar    1  UNL1        0.0388
     32 S         141.7814  140.3700  169.6820 S.O2    1  UNL1        0.0105
     33 C         142.2493  140.5219  171.0990 C.3     1  UNL1        0.1816
     34 O         142.9726  141.1471  169.2053 O.2     1  UNL1       -0.1686
     35 O         140.5903  139.5928  170.1586 O.2     1  UNL1       -0.1686
     36 O         141.5894  144.0618  161.6280 O.3     1  UNL1       -0.4765
     37 C         141.0561  144.9003  162.7515 C.3     1  UNL1        0.1954
     38 C         141.9291  145.2198  163.9288 C.3     1  UNL1        0.0500
     39 C         139.6498  145.4196  162.6978 C.3     1  UNL1        0.1855
     40 O         138.5867  144.7954  163.5523 O.3     1  UNL1       -0.3473
     41 C         137.6871  143.7407  162.9791 C.3     1  UNL1        0.1743
@<TRIPOS>BOND
     1    20    21    1
     2    21    19    1
     3    19    17    1
     4    17    18    2
     5    17    16    1
     6    16    11    1
     7    11    12   ar
     8    12    13   ar
     9    13    14   ar
    10    14     7    1
    11     7     8   am
    12     8     9    2
    13     8     1    1
    14     1     2   ar
    15     2     3   ar
    16     3    25    1
    17    25    26    1
    18    26    27   ar
    19    27    28   ar
    20    28    29   ar
    21    29    32    1
    22    32    33    1
    23    32    34    2
    24    32    35    2
    25    29    30   ar
    26    30    31   ar
    27     3     4   ar
    28     4     5   ar
    29     5    36    1
    30    36    37    1
    31    37    38    1
    32    37    39    1
    33    39    40    1
    34    40    41    1
    35     5     6   ar
    36    14    15   ar
    37    17    22    1
    38    22    23    1
    39    23    24    1
    40    15    11   ar
    41     6     1   ar
    42    31    26   ar
    43     7    10    1
@<TRIPOS>MOLECULE
*****
 41 43 0 0 0
SMALL
GASTEIGER

@<TRIPOS>ATOM
      1 C         143.5111  140.4714  159.8036 C.ar    1  UNL1        0.0597
      2 C         144.1731  140.0195  161.0715 C.ar    1  UNL1        0.0422
      3 C         144.3570  140.9832  162.2061 C.ar    1  UNL1        0.1485
      4 C         143.8790  142.3988  162.0728 C.ar    1  UNL1        0.0743
      5 C         143.2170  142.8506  160.8049 C.ar    1  UNL1        0.1417
      6 C         143.0331  141.8869  159.6703 C.ar    1  UNL1        0.0416
      7 N         142.3746  138.3575  158.8086 N.am    1  UNL1       -0.2644
      8 C         143.3272  139.5077  158.6689 C.2     1  UNL1        0.2508
      9 O         144.0959  139.6942  157.3944 O.2     1  UNL1       -0.2698
     10 H         141.8700  138.2351  159.6451 H       1  UNL1        0.1566
     11 N         142.5833  135.6172  156.0677 N.ar    1  UNL1       -0.2357
     12 C         141.2317  136.2047  155.7879 C.ar    1  UNL1        0.0988
     13 C         140.9891  137.3028  156.7806 C.ar    1  UNL1        0.0565
     14 C         142.1906  137.3938  157.6739 C.ar    1  UNL1        0.1557
     15 N         143.1758  136.3521  157.2334 N.ar    1  UNL1       -0.1534
     16 C         143.2288  134.4923  155.3143 C.3     1  UNL1        0.2423
     17 P         142.5063  133.1881  155.1492 P.3     1  UNL1        0.3677
     18 O         141.7839  131.8840  154.9841 O.2     1  UNL1       -0.2557
     19 O         142.5229  133.3674  153.6600 O.3     1  UNL1       -0.2928
     20 C         141.4768  135.1425  152.0775 C.3     1  UNL1        0.0352
     21 C         141.3257  133.9391  152.9601 C.3     1  UNL1        0.1515
     22 O         142.4898  133.0088  156.6384 O.3     1  UNL1       -0.2928
     23 C         143.2754  131.8973  157.2688 C.3     1  UNL1        0.1515
     24 C         144.7067  132.1183  157.6592 C.3     1  UNL1        0.0352
     25 O         145.0190  140.5314  163.4741 O.3     1  UNL1       -0.4534
     26 C         144.2118  140.3821  164.7296 C.ar    1  UNL1        0.1454
     27 C         143.6792  141.5982  165.4278 C.ar    1  UNL1        0.0388
     28 C         142.8720  141.4490  166.6833 C.ar    1  UNL1        0.0215
     29 C         142.5973  140.0836  167.2404 C.ar    1  UNL1        0.1059
     30 C         143.1299  138.8675  166.5422 C.ar    1  UNL1        0.0215
     31 C         143.9371  139.0168  165.2867 C.ar    1  UNL1        0.0388
     32 S         141.7901  139.9343  168.4959 S.O2    1  UNL1        0.0105
     33 C         140.9829  139.7850  169.7513 C.3     1  UNL1        0.1816
     34 O         142.9191  139.1788  169.1320 O.2     1  UNL1       -0.1686
     35 O         140.6611  140.6898  167.8598 O.2     1  UNL1       -0.1686
     36 O         142.7390  144.2661  160.6717 O.3     1  UNL1       -0.4765
     37 C         141.3537  144.6347  161.1133 C.3     1  UNL1        0.1954
     38 C         141.1294  145.2018  162.4837 C.3     1  UNL1        0.0500
     39 C         140.1927  144.4360  160.1846 C.3     1  UNL1        0.1855
     40 O         138.9147  143.8419  160.6980 O.3     1  UNL1       -0.3473
     41 C         138.8624  142.3928  161.0821 C.3     1  UNL1        0.1743
@<TRIPOS>BOND
     1    20    21    1
     2    21    19    1
     3    19    17    1
     4    17    18    2
     5    17    16    1
     6    16    11    1
     7    11    12   ar
     8    12    13   ar
     9    13    14   ar
    10    14     7    1
    11     7     8   am
    12     8     9    2
    13     8     1    1
    14     1     2   ar
    15     2     3   ar
    16     3    25    1
    17    25    26    1
    18    26    27   ar
    19    27    28   ar
    20    28    29   ar
    21    29    32    1
    22    32    33    1
    23    32    34    2
    24    32    35    2
    25    29    30   ar
    26    30    31   ar
    27     3     4   ar
    28     4     5   ar
    29     5    36    1
    30    36    37    1
    31    37    38    1
    32    37    39    1
    33    39    40    1
    34    40    41    1
    35     5     6   ar
    36    14    15   ar
    37    17    22    1
    38    22    23    1
    39    23    24    1
    40    15    11   ar
    41     6     1   ar
    42    31    26   ar
    43     7    10    1
@<TRIPOS>MOLECULE
*****
 41 43 0 0 0
SMALL
GASTEIGER

@<TRIPOS>ATOM
      1 C         142.3487  139.4297  160.4570 C.ar    1  UNL1        0.0597
      2 C         143.3041  139.7791  161.5592 C.ar    1  UNL1        0.0422
      3 C         142.9159  140.7922  162.5950 C.ar    1  UNL1        0.1485
      4 C         141.5724  141.4559  162.5285 C.ar    1  UNL1        0.0743
      5 C         140.6170  141.1065  161.4262 C.ar    1  UNL1        0.1417
      6 C         141.0051  140.0933  160.3905 C.ar    1  UNL1        0.0416
      7 N         142.4158  138.6602  157.9763 N.am    1  UNL1       -0.2644
      8 C         142.7368  138.4165  159.4211 C.2     1  UNL1        0.2508
      9 O         143.4459  137.1596  159.8302 O.2     1  UNL1       -0.2698
     10 H         141.9503  139.4852  157.7079 H       1  UNL1        0.1566
     11 N         142.9031  135.6054  155.6320 N.ar    1  UNL1       -0.2357
     12 C         143.8993  136.5707  155.0611 C.ar    1  UNL1        0.0988
     13 C         143.8380  137.8326  155.8698 C.ar    1  UNL1        0.0565
     14 C         142.8039  137.6470  156.9405 C.ar    1  UNL1        0.1557
     15 N         142.2261  136.2706  156.7935 N.ar    1  UNL1       -0.1534
     16 C         142.6316  134.2184  155.1296 C.3     1  UNL1        0.2423
     17 P         142.5949  133.0666  156.0898 P.3     1  UNL1        0.3677
     18 O         142.5583  131.9148  157.0500 O.2     1  UNL1       -0.2557
     19 O         141.1621  132.8101  155.7275 O.3     1  UNL1       -0.2928
     20 C         140.6358  130.5186  154.6222 C.3     1  UNL1        0.0352
     21 C         140.8299  132.0016  154.5085 C.3     1  UNL1        0.1515
     22 O         144.0278  133.3231  156.4520 O.3     1  UNL1       -0.2928
     23 C         144.4859  133.1483  157.8697 C.3     1  UNL1        0.1515
     24 C         145.6800  132.2924  158.1719 C.3     1  UNL1        0.0352
     25 O         143.8713  141.1418  163.6974 O.3     1  UNL1       -0.4534
     26 C         143.4463  141.0057  165.1294 C.ar    1  UNL1        0.1454
     27 C         143.3070  142.2267  165.9897 C.ar    1  UNL1        0.0388
     28 C         142.8819  142.0906  167.4217 C.ar    1  UNL1        0.0215
     29 C         142.5962  140.7336  167.9936 C.ar    1  UNL1        0.1059
     30 C         142.7355  139.5127  167.1334 C.ar    1  UNL1        0.0215
     31 C         143.1606  139.6488  165.7013 C.ar    1  UNL1        0.0388
     32 S         142.1712  140.5975  169.4256 S.O2    1  UNL1        0.0105
     33 C         141.7461  140.4615  170.8577 C.3     1  UNL1        0.1816
     34 O         140.9749  139.8015  168.9950 O.2     1  UNL1       -0.1686
     35 O         143.3674  141.3935  169.8563 O.2     1  UNL1       -0.1686
     36 O         139.2734  141.7701  161.3597 O.3     1  UNL1       -0.4765
     37 C         139.1402  143.2282  161.6857 C.3     1  UNL1        0.1954
     38 C         139.8710  144.2499  160.8660 C.3     1  UNL1        0.0500
     39 C         138.2761  143.6646  162.8316 C.3     1  UNL1        0.1855
     40 O         138.6296  144.8966  163.6108 O.3     1  UNL1       -0.3473
     41 C         138.7524  144.8300  165.1043 C.3     1  UNL1        0.1743
@<TRIPOS>BOND
     1    20    21    1
     2    21    19    1
     3    19    17    1
     4    17    18    2
     5    17    16    1
     6    16    11    1
     7    11    12   ar
     8    12    13   ar
     9    13    14   ar
    10    14     7    1
    11     7     8   am
    12     8     9    2
    13     8     1    1
    14     1     2   ar
    15     2     3   ar
    16     3    25    1
    17    25    26    1
    18    26    27   ar
    19    27    28   ar
    20    28    29   ar
    21    29    32    1
    22    32    33    1
    23    32    34    2
    24    32    35    2
    25    29    30   ar
    26    30    31   ar
    27     3     4   ar
    28     4     5   ar
    29     5    36    1
    30    36    37    1
    31    37    38    1
    32    37    39    1
    33    39    40    1
    34    40    41    1
    35     5     6   ar
    36    14    15   ar
    37    17    22    1
    38    22    23    1
    39    23    24    1
    40    15    11   ar
    41     6     1   ar
    42    31    26   ar
    43     7    10    1
@<TRIPOS>MOLECULE
*****
 41 43 0 0 0
SMALL
GASTEIGER

@<TRIPOS>ATOM
      1 C         143.5093  139.8471  160.5402 C.ar    1  UNL1        0.0597
      2 C         143.4658  139.0037  161.7798 C.ar    1  UNL1        0.0422
      3 C         143.6555  139.6382  163.1256 C.ar    1  UNL1        0.1485
      4 C         143.8886  141.1162  163.2318 C.ar    1  UNL1        0.0743
      5 C         143.9321  141.9596  161.9922 C.ar    1  UNL1        0.1417
      6 C         143.7425  141.3250  160.6464 C.ar    1  UNL1        0.0416
      7 N         142.2384  138.1929  158.9914 N.am    1  UNL1       -0.2644
      8 C         143.3197  139.2125  159.1942 C.2     1  UNL1        0.2508
      9 O         144.2114  139.5976  158.0512 O.2     1  UNL1       -0.2698
     10 H         141.6531  137.9402  159.7416 H       1  UNL1        0.1566
     11 N         142.3387  136.1276  155.7066 N.ar    1  UNL1       -0.2357
     12 C         141.1750  137.0364  155.4421 C.ar    1  UNL1        0.0988
     13 C         140.9957  137.9207  156.6405 C.ar    1  UNL1        0.0565
     14 C         142.0487  137.5584  157.6455 C.ar    1  UNL1        0.1557
     15 N         142.8787  136.4503  157.0683 N.ar    1  UNL1       -0.1534
     16 C         142.8693  135.0802  154.7732 C.3     1  UNL1        0.2423
     17 P         141.9533  134.0209  154.2358 P.3     1  UNL1        0.3677
     18 O         141.0372  132.9617  153.6983 O.2     1  UNL1       -0.2557
     19 O         141.8066  133.4482  155.6144 O.3     1  UNL1       -0.2928
     20 C         143.2048  131.6678  156.8891 C.3     1  UNL1        0.0352
     21 C         142.1581  132.0129  155.8715 C.3     1  UNL1        0.1515
     22 O         142.1000  134.5937  152.8572 O.3     1  UNL1       -0.2928
     23 C         140.8939  134.7556  151.9801 C.3     1  UNL1        0.1515
     24 C         139.9992  135.9478  152.1479 C.3     1  UNL1        0.0352
     25 O         143.6119  138.7948  164.3654 O.3     1  UNL1       -0.4534
     26 C         142.6930  139.1642  165.4919 C.ar    1  UNL1        0.1454
     27 C         141.2501  139.4664  165.2144 C.ar    1  UNL1        0.0388
     28 C         140.3311  139.8358  166.3409 C.ar    1  UNL1        0.0215
     29 C         140.8550  139.9031  167.7449 C.ar    1  UNL1        0.1059
     30 C         142.2978  139.6010  168.0223 C.ar    1  UNL1        0.0215
     31 C         143.2168  139.2315  166.8958 C.ar    1  UNL1        0.0388
     32 S         139.9360  140.2725  168.8714 S.O2    1  UNL1        0.0105
     33 C         139.0170  140.6419  169.9979 C.3     1  UNL1        0.1816
     34 O         141.0324  141.0796  169.5011 O.2     1  UNL1       -0.1686
     35 O         138.8397  139.4654  168.2417 O.2     1  UNL1       -0.1686
     36 O         144.1653  143.4375  162.0984 O.3     1  UNL1       -0.4765
     37 C         143.2860  144.2741  162.9798 C.3     1  UNL1        0.1954
     38 C         143.8527  144.9180  164.2104 C.3     1  UNL1        0.0500
     39 C         141.8400  144.4669  162.6307 C.3     1  UNL1        0.1855
     40 O         140.7956  144.4167  163.7062 O.3     1  UNL1       -0.3473
     41 C         140.6010  143.1619  164.5048 C.3     1  UNL1        0.1743
@<TRIPOS>BOND
     1    20    21    1
     2    21    19    1
     3    19    17    1
     4    17    18    2
     5    17    16    1
     6    16    11    1
     7    11    12   ar
     8    12    13   ar
     9    13    14   ar
    10    14     7    1
    11     7     8   am
    12     8     9    2
    13     8     1    1
    14     1     2   ar
    15     2     3   ar
    16     3    25    1
    17    25    26    1
    18    26    27   ar
    19    27    28   ar
    20    28    29   ar
    21    29    32    1
    22    32    33    1
    23    32    34    2
    24    32    35    2
    25    29    30   ar
    26    30    31   ar
    27     3     4   ar
    28     4     5   ar
    29     5    36    1
    30    36    37    1
    31    37    38    1
    32    37    39    1
    33    39    40    1
    34    40    41    1
    35     5     6   ar
    36    14    15   ar
    37    17    22    1
    38    22    23    1
    39    23    24    1
    40    15    11   ar
    41     6     1   ar
    42    31    26   ar
    43     7    10    1
@<TRIPOS>MOLECULE
*****
 41 43 0 0 0
SMALL
GASTEIGER

@<TRIPOS>ATOM
      1 C         137.7592  141.7354  157.6327 C.ar    1  UNL1        0.0597
      2 C         136.7054  140.9966  156.8622 C.ar    1  UNL1        0.0422
      3 C         136.2562  141.5085  155.5257 C.ar    1  UNL1        0.1485
      4 C         136.8609  142.7592  154.9597 C.ar    1  UNL1        0.0743
      5 C         137.9147  143.4979  155.7302 C.ar    1  UNL1        0.1417
      6 C         138.3639  142.9860  157.0667 C.ar    1  UNL1        0.0416
      7 N         137.6854  139.9162  159.4861 N.am    1  UNL1       -0.2644
      8 C         138.2085  141.2235  158.9692 C.2     1  UNL1        0.2508
      9 O         139.1808  142.0191  159.7887 O.2     1  UNL1       -0.2698
     10 H         137.0472  139.3941  158.9482 H       1  UNL1        0.1566
     11 N         138.4269  139.1532  163.2189 N.ar    1  UNL1       -0.2357
     12 C         139.2251  138.0801  162.5396 C.ar    1  UNL1        0.0988
     13 C         139.0445  138.2353  161.0585 C.ar    1  UNL1        0.0565
     14 C         138.1347  139.4044  160.8226 C.ar    1  UNL1        0.1557
     15 N         137.7530  139.9716  162.1577 N.ar    1  UNL1       -0.1534
     16 C         138.3212  139.3698  164.6993 C.3     1  UNL1        0.2423
     17 P         139.2295  140.3499  165.3807 P.3     1  UNL1        0.3677
     18 O         140.1378  141.3301  166.0621 O.2     1  UNL1       -0.2557
     19 O         140.1494  139.2296  165.7662 O.3     1  UNL1       -0.2928
     20 C         142.5390  138.2773  165.4017 C.3     1  UNL1        0.0352
     21 C         141.6352  139.4305  165.7230 C.3     1  UNL1        0.1515
     22 O         138.3096  141.4703  164.9953 O.3     1  UNL1       -0.2928
     23 C         138.8728  142.8138  164.6375 C.3     1  UNL1        0.1515
     24 C         138.0192  144.0413  164.7585 C.3     1  UNL1        0.0352
     25 O         135.2024  140.7698  154.7552 O.3     1  UNL1       -0.4534
     26 C         133.8993  140.4213  155.4114 C.ar    1  UNL1        0.1454
     27 C         132.7406  141.3704  155.3290 C.ar    1  UNL1        0.0388
     28 C         131.4376  141.0219  155.9852 C.ar    1  UNL1        0.0215
     29 C         131.2933  139.7244  156.7240 C.ar    1  UNL1        0.1059
     30 C         132.4519  138.7754  156.8064 C.ar    1  UNL1        0.0215
     31 C         133.7550  139.1238  156.1501 C.ar    1  UNL1        0.0388
     32 S         129.9902  139.3759  157.3802 S.O2    1  UNL1        0.0105
     33 C         128.6872  139.0274  158.0365 C.3     1  UNL1        0.1816
     34 O         130.7024  138.4126  158.2828 O.2     1  UNL1       -0.1686
     35 O         129.2780  140.3393  156.4776 O.2     1  UNL1       -0.1686
     36 O         138.5193  144.7485  155.1642 O.3     1  UNL1       -0.4765
     37 C         139.8518  145.2277  155.6588 C.3     1  UNL1        0.1954
     38 C         141.1114  144.5735  155.1736 C.3     1  UNL1        0.0500
     39 C         139.9248  146.3611  156.6387 C.3     1  UNL1        0.1855
     40 O         139.0103  147.5408  156.4905 O.3     1  UNL1       -0.3473
     41 C         139.0420  148.3614  155.2352 C.3     1  UNL1        0.1743
@<TRIPOS>BOND
     1    20    21    1
     2    21    19    1
     3    19    17    1
     4    17    18    2
     5    17    16    1
     6    16    11    1
     7    11    12   ar
     8    12    13   ar
     9    13    14   ar
    10    14     7    1
    11     7     8   am
    12     8     9    2
    13     8     1    1
    14     1     2   ar
    15     2     3   ar
    16     3    25    1
    17    25    26    1
    18    26    27   ar
    19    27    28   ar
    20    28    29   ar
    21    29    32    1
    22    32    33    1
    23    32    34    2
    24    32    35    2
    25    29    30   ar
    26    30    31   ar
    27     3     4   ar
    28     4     5   ar
    29     5    36    1
    30    36    37    1
    31    37    38    1
    32    37    39    1
    33    39    40    1
    34    40    41    1
    35     5     6   ar
    36    14    15   ar
    37    17    22    1
    38    22    23    1
    39    23    24    1
    40    15    11   ar
    41     6     1   ar
    42    31    26   ar
    43     7    10    1
@<TRIPOS>MOLECULE
*****
 41 43 0 0 0
SMALL
GASTEIGER

@<TRIPOS>ATOM
      1 C         141.5292  138.5909  159.6441 C.ar    1  UNL1        0.0597
      2 C         142.4751  137.6394  158.9733 C.ar    1  UNL1        0.0422
      3 C         142.6116  137.6459  157.4796 C.ar    1  UNL1        0.1485
      4 C         141.8021  138.6038  156.6566 C.ar    1  UNL1        0.0743
      5 C         140.8562  139.5552  157.3274 C.ar    1  UNL1        0.1417
      6 C         140.7198  139.5488  158.8211 C.ar    1  UNL1        0.0416
      7 N         142.1767  139.5581  161.9669 N.am    1  UNL1       -0.2644
      8 C         141.3926  138.5845  161.1379 C.2     1  UNL1        0.2508
      9 O         140.4720  137.6044  161.8026 O.2     1  UNL1       -0.2698
     10 H         142.7810  140.2013  161.5305 H       1  UNL1        0.1566
     11 N         141.4260  140.1726  165.7251 N.ar    1  UNL1       -0.2357
     12 C         142.2343  138.9108  165.7936 C.ar    1  UNL1        0.0988
     13 C         142.6139  138.5270  164.3940 C.ar    1  UNL1        0.0565
     14 C         142.0402  139.5517  163.4607 C.ar    1  UNL1        0.1557
     15 N         141.3061  140.5686  164.2833 N.ar    1  UNL1       -0.1534
     16 C         140.8405  140.9090  166.8933 C.3     1  UNL1        0.2423
     17 P         139.8326  140.2348  167.7763 P.3     1  UNL1        0.3677
     18 O         138.8247  139.5606  168.6591 O.2     1  UNL1       -0.2557
     19 O         140.6796  140.5396  168.9761 O.3     1  UNL1       -0.2928
     20 C         142.7454  139.9666  170.4437 C.3     1  UNL1        0.0352
     21 C         141.7185  139.5574  169.4299 C.3     1  UNL1        0.1515
     22 O         138.9856  139.9299  166.5763 O.3     1  UNL1       -0.2928
     23 C         138.3551  138.5770  166.4275 C.3     1  UNL1        0.1515
     24 C         138.7659  137.6781  165.2992 C.3     1  UNL1        0.0352
     25 O         143.5575  136.6944  156.8087 O.3     1  UNL1       -0.4534
     26 C         143.1155  135.2967  156.4909 C.ar    1  UNL1        0.1454
     27 C         142.0783  135.0602  155.4334 C.ar    1  UNL1        0.0388
     28 C         141.6363  133.6625  155.1156 C.ar    1  UNL1        0.0215
     29 C         142.2316  132.5012  155.8554 C.ar    1  UNL1        0.1059
     30 C         143.2687  132.7377  156.9128 C.ar    1  UNL1        0.0215
     31 C         143.7107  134.1354  157.2306 C.ar    1  UNL1        0.0388
     32 S         141.7896  131.1035  155.5376 S.O2    1  UNL1        0.0105
     33 C         141.3476  129.7058  155.2198 C.3     1  UNL1        0.1816
     34 O         142.9505  130.5594  156.3161 O.2     1  UNL1       -0.1686
     35 O         140.6286  131.6476  154.7590 O.2     1  UNL1       -0.1686
     36 O         140.0468  140.5131  156.5044 O.3     1  UNL1       -0.4765
     37 C         138.5778  140.2798  156.3106 C.3     1  UNL1        0.1954
     38 C         137.5887  140.9072  157.2475 C.3     1  UNL1        0.0500
     39 C         138.0979  139.4189  155.1798 C.3     1  UNL1        0.1855
     40 O         136.6882  138.9067  155.1731 O.3     1  UNL1       -0.3473
     41 C         135.6778  139.5031  154.2384 C.3     1  UNL1        0.1743
@<TRIPOS>BOND
     1    20    21    1
     2    21    19    1
     3    19    17    1
     4    17    18    2
     5    17    16    1
     6    16    11    1
     7    11    12   ar
     8    12    13   ar
     9    13    14   ar
    10    14     7    1
    11     7     8   am
    12     8     9    2
    13     8     1    1
    14     1     2   ar
    15     2     3   ar
    16     3    25    1
    17    25    26    1
    18    26    27   ar
    19    27    28   ar
    20    28    29   ar
    21    29    32    1
    22    32    33    1
    23    32    34    2
    24    32    35    2
    25    29    30   ar
    26    30    31   ar
    27     3     4   ar
    28     4     5   ar
    29     5    36    1
    30    36    37    1
    31    37    38    1
    32    37    39    1
    33    39    40    1
    34    40    41    1
    35     5     6   ar
    36    14    15   ar
    37    17    22    1
    38    22    23    1
    39    23    24    1
    40    15    11   ar
    41     6     1   ar
    42    31    26   ar
    43     7    10    1
