@<TRIPOS>MOLECULE
*****
 27 30 0 0 0
SMALL
GASTEIGER

@<TRIPOS>ATOM
      1 C         139.4909  139.0169  164.3883 C.3     1  UNL1        0.1553
      2 C         139.9998  138.0900  163.3244 C.3     1  UNL1        0.0404
      3 C         141.3745  137.6396  163.7209 C.3     1  UNL1        0.0305
      4 C         141.7153  138.2882  165.0298 C.ar    1  UNL1       -0.0061
      5 C         142.9353  138.2137  165.8994 C.ar    1  UNL1       -0.0002
      6 C         142.9910  138.9904  167.1814 C.ar    1  UNL1        0.0340
      7 C         141.8269  139.8416  167.5938 C.ar    1  UNL1        0.1314
      8 N         140.6069  139.9162  166.7243 N.ar    1  UNL1       -0.2329
      9 C         140.5511  139.1395  165.4423 C.ar    1  UNL1        0.0834
     10 N         141.8827  140.6184  168.8759 N.pl3   1  UNL1       -0.2921
     11 C         141.1990  140.0912  170.1025 C.3     1  UNL1        0.1092
     12 C         141.2548  140.8680  171.3846 C.3     1  UNL1        0.0903
     13 N         141.9943  142.1718  171.4400 N.3     1  UNL1       -0.2947
     14 C         142.6781  142.6989  170.2133 C.3     1  UNL1        0.0886
     15 C         142.6222  141.9222  168.9313 C.3     1  UNL1        0.0899
     16 C         143.3059  142.4493  167.7046 C.3     1  UNL1        0.0229
     17 H         142.7123  142.0728  172.1577 H       1  UNL1        0.1233
     18 O         138.1561  139.7012  164.3967 O.3     1  UNL1       -0.3455
     19 C         137.9078  140.8721  163.4925 C.3     1  UNL1        0.1688
     20 C         140.4291  141.5539  162.0169 C.3     1  UNL1        0.0308
     21 C         139.8585  142.5195  163.0128 C.ar    1  UNL1       -0.0233
     22 C         140.5486  143.8261  163.2710 C.ar    1  UNL1       -0.0022
     23 C         139.9779  144.7918  164.2669 C.ar    1  UNL1        0.0293
     24 C         138.7172  144.4509  165.0047 C.ar    1  UNL1        0.1399
     25 F         138.1466  145.4165  166.0007 F       1  UNL1       -0.2042
     26 C         138.0272  143.1443  164.7466 C.ar    1  UNL1        0.0275
     27 C         138.5978  142.1787  163.7506 C.ar    1  UNL1        0.0056
@<TRIPOS>BOND
     1    20    21    1
     2    21    22   ar
     3    22    23   ar
     4    23    24   ar
     5    24    25    1
     6    24    26   ar
     7    26    27   ar
     8    27    19    1
     9    19    18    1
    10     1    18    1
    11     1     2    1
    12     2     3    1
    13     3     4    1
    14     4     5   ar
    15     5     6   ar
    16     6     7   ar
    17     7    10    1
    18    10    11    1
    19    11    12    1
    20    12    13    1
    21    13    14    1
    22    14    15    1
    23    15    16    1
    24     7     8   ar
    25     8     9   ar
    26    27    21   ar
    27     9     1    1
    28     9     4   ar
    29    15    10    1
    30    13    17    1
@<TRIPOS>MOLECULE
*****
 27 30 0 0 0
SMALL
GASTEIGER

@<TRIPOS>ATOM
      1 C         143.9218  141.8025  164.0063 C.3     1  UNL1        0.1553
      2 C         144.7277  140.9488  163.0726 C.3     1  UNL1        0.0404
      3 C         144.8146  139.5721  163.6618 C.3     1  UNL1        0.0305
      4 C         144.0624  139.5750  164.9596 C.ar    1  UNL1       -0.0061
      5 C         143.8087  138.5004  165.9749 C.ar    1  UNL1       -0.0002
      6 C         143.0032  138.8044  167.2032 C.ar    1  UNL1        0.0340
      7 C         142.4515  140.1829  167.4162 C.ar    1  UNL1        0.1314
      8 N         142.7052  141.2574  166.4008 N.ar    1  UNL1       -0.2329
      9 C         143.5107  140.9534  165.1725 C.ar    1  UNL1        0.0834
     10 N         141.6460  140.4868  168.6446 N.pl3   1  UNL1       -0.2921
     11 C         142.3350  140.9142  169.9065 C.3     1  UNL1        0.1092
     12 C         141.5295  141.2181  171.1349 C.3     1  UNL1        0.0903
     13 N         140.0349  141.0946  171.1012 N.3     1  UNL1       -0.2947
     14 C         139.3459  140.6672  169.8392 C.3     1  UNL1        0.0886
     15 C         140.1514  140.3633  168.6109 C.3     1  UNL1        0.0899
     16 C         139.4624  139.9359  167.3489 C.3     1  UNL1        0.0229
     17 H         139.6582  142.0102  171.3468 H       1  UNL1        0.1233
     18 O         143.5860  143.2510  163.8086 O.3     1  UNL1       -0.3455
     19 C         142.3742  143.6383  163.0138 C.3     1  UNL1        0.1688
     20 C         140.8231  141.1254  162.4854 C.3     1  UNL1        0.0308
     21 C         140.2295  142.2081  163.3371 C.ar    1  UNL1       -0.0233
     22 C         138.8603  142.0343  163.9246 C.ar    1  UNL1       -0.0022
     23 C         138.2667  143.1170  164.7763 C.ar    1  UNL1        0.0293
     24 C         139.0422  144.3735  165.0405 C.ar    1  UNL1        0.1399
     25 F         138.4486  145.4562  165.8922 F       1  UNL1       -0.2042
     26 C         140.4114  144.5472  164.4530 C.ar    1  UNL1        0.0275
     27 C         141.0050  143.4645  163.6013 C.ar    1  UNL1        0.0056
@<TRIPOS>BOND
     1    20    21    1
     2    21    22   ar
     3    22    23   ar
     4    23    24   ar
     5    24    25    1
     6    24    26   ar
     7    26    27   ar
     8    27    19    1
     9    19    18    1
    10     1    18    1
    11     1     2    1
    12     2     3    1
    13     3     4    1
    14     4     5   ar
    15     5     6   ar
    16     6     7   ar
    17     7    10    1
    18    10    11    1
    19    11    12    1
    20    12    13    1
    21    13    14    1
    22    14    15    1
    23    15    16    1
    24     7     8   ar
    25     8     9   ar
    26    27    21   ar
    27     9     1    1
    28     9     4   ar
    29    15    10    1
    30    13    17    1
@<TRIPOS>MOLECULE
*****
 27 30 0 0 0
SMALL
GASTEIGER

@<TRIPOS>ATOM
      1 C         141.9042  138.2539  164.1770 C.3     1  UNL1        0.1553
      2 C         141.0754  137.4150  163.2500 C.3     1  UNL1        0.0404
      3 C         139.6686  137.4013  163.7703 C.3     1  UNL1        0.0305
      4 C         139.6280  138.2317  165.0188 C.ar    1  UNL1       -0.0061
      5 C         138.5113  138.5762  165.9592 C.ar    1  UNL1       -0.0002
      6 C         138.7764  139.4476  167.1509 C.ar    1  UNL1        0.0340
      7 C         140.1581  139.9745  167.4023 C.ar    1  UNL1        0.1314
      8 N         141.2748  139.6301  166.4619 N.ar    1  UNL1       -0.2329
      9 C         141.0097  138.7587  165.2701 C.ar    1  UNL1        0.0834
     10 N         140.4232  140.8459  168.5941 N.pl3   1  UNL1       -0.2921
     11 C         140.5763  140.2310  169.9537 C.3     1  UNL1        0.1092
     12 C         140.8413  141.1024  171.1455 C.3     1  UNL1        0.0903
     13 N         140.9532  142.5888  170.9778 N.3     1  UNL1       -0.2947
     14 C         140.8001  143.2038  169.6181 C.3     1  UNL1        0.0886
     15 C         140.5350  142.3323  168.4264 C.3     1  UNL1        0.0899
     16 C         140.3819  142.9473  167.0668 C.3     1  UNL1        0.0229
     17 H         141.8769  142.8549  171.3189 H       1  UNL1        0.1233
     18 O         143.3703  138.5382  164.0356 O.3     1  UNL1       -0.3455
     19 C         143.8336  139.6827  163.1838 C.3     1  UNL1        0.1688
     20 C         141.4228  141.1018  162.1005 C.3     1  UNL1        0.0308
     21 C         142.3381  141.8034  163.0596 C.ar    1  UNL1       -0.0233
     22 C         142.0479  143.2146  163.4772 C.ar    1  UNL1       -0.0022
     23 C         142.9632  143.9162  164.4363 C.ar    1  UNL1        0.0293
     24 C         144.1686  143.2067  164.9780 C.ar    1  UNL1        0.1399
     25 F         145.0839  143.9083  165.9372 F       1  UNL1       -0.2042
     26 C         144.4588  141.7955  164.5605 C.ar    1  UNL1        0.0275
     27 C         143.5435  141.0939  163.6013 C.ar    1  UNL1        0.0056
@<TRIPOS>BOND
     1    20    21    1
     2    21    22   ar
     3    22    23   ar
     4    23    24   ar
     5    24    25    1
     6    24    26   ar
     7    26    27   ar
     8    27    19    1
     9    19    18    1
    10     1    18    1
    11     1     2    1
    12     2     3    1
    13     3     4    1
    14     4     5   ar
    15     5     6   ar
    16     6     7   ar
    17     7    10    1
    18    10    11    1
    19    11    12    1
    20    12    13    1
    21    13    14    1
    22    14    15    1
    23    15    16    1
    24     7     8   ar
    25     8     9   ar
    26    27    21   ar
    27     9     1    1
    28     9     4   ar
    29    15    10    1
    30    13    17    1
@<TRIPOS>MOLECULE
*****
 27 30 0 0 0
SMALL
GASTEIGER

@<TRIPOS>ATOM
      1 C         143.6899  141.8408  164.1793 C.3     1  UNL1        0.1553
      2 C         143.3072  142.5449  162.9113 C.3     1  UNL1        0.0404
      3 C         142.0026  143.2468  163.1466 C.3     1  UNL1        0.0305
      4 C         141.5791  142.9766  164.5599 C.ar    1  UNL1       -0.0061
      5 C         140.3786  143.4095  165.3482 C.ar    1  UNL1       -0.0002
      6 C         140.2210  142.9734  166.7747 C.ar    1  UNL1        0.0340
      7 C         141.2638  142.1045  167.4130 C.ar    1  UNL1        0.1314
      8 N         142.4643  141.6716  166.6247 N.ar    1  UNL1       -0.2329
      9 C         142.6219  142.1076  165.1982 C.ar    1  UNL1        0.0834
     10 N         141.1061  141.6684  168.8396 N.pl3   1  UNL1       -0.2921
     11 C         141.8780  142.3590  169.9246 C.3     1  UNL1        0.1092
     12 C         141.7203  141.9230  171.3512 C.3     1  UNL1        0.0903
     13 N         140.7908  140.7963  171.6926 N.3     1  UNL1       -0.2947
     14 C         140.0189  140.1057  170.6075 C.3     1  UNL1        0.0886
     15 C         140.1766  140.5418  169.1810 C.3     1  UNL1        0.0899
     16 C         139.4047  139.8512  168.0959 C.3     1  UNL1        0.0229
     17 H         140.1056  141.1689  172.3500 H       1  UNL1        0.1233
     18 O         144.9241  141.0150  164.3912 O.3     1  UNL1       -0.3455
     19 C         144.8969  139.5410  164.1141 C.3     1  UNL1        0.1688
     20 C         143.3524  138.4036  166.4207 C.3     1  UNL1        0.0308
     21 C         142.8169  138.2787  165.0252 C.ar    1  UNL1       -0.0233
     22 C         141.5091  137.5851  164.7829 C.ar    1  UNL1       -0.0022
     23 C         140.9736  137.4603  163.3873 C.ar    1  UNL1        0.0293
     24 C         141.7458  138.0289  162.2339 C.ar    1  UNL1        0.1399
     25 F         141.2104  137.9041  160.8384 F       1  UNL1       -0.2042
     26 C         143.0536  138.7225  162.4762 C.ar    1  UNL1        0.0275
     27 C         143.5891  138.8474  163.8718 C.ar    1  UNL1        0.0056
@<TRIPOS>BOND
     1    20    21    1
     2    21    22   ar
     3    22    23   ar
     4    23    24   ar
     5    24    25    1
     6    24    26   ar
     7    26    27   ar
     8    27    19    1
     9    19    18    1
    10     1    18    1
    11     1     2    1
    12     2     3    1
    13     3     4    1
    14     4     5   ar
    15     5     6   ar
    16     6     7   ar
    17     7    10    1
    18    10    11    1
    19    11    12    1
    20    12    13    1
    21    13    14    1
    22    14    15    1
    23    15    16    1
    24     7     8   ar
    25     8     9   ar
    26    27    21   ar
    27     9     1    1
    28     9     4   ar
    29    15    10    1
    30    13    17    1
@<TRIPOS>MOLECULE
*****
 27 30 0 0 0
SMALL
GASTEIGER

@<TRIPOS>ATOM
      1 C         141.3954  138.6178  164.4726 C.3     1  UNL1        0.1553
      2 C         142.2625  138.7548  163.2564 C.3     1  UNL1        0.0404
      3 C         143.1880  139.9148  163.4753 C.3     1  UNL1        0.0305
      4 C         142.8928  140.4947  164.8268 C.ar    1  UNL1       -0.0061
      5 C         143.4897  141.6491  165.5758 C.ar    1  UNL1       -0.0002
      6 C         142.9787  142.0019  166.9412 C.ar    1  UNL1        0.0340
      7 C         141.8707  141.2003  167.5576 C.ar    1  UNL1        0.1314
      8 N         141.2738  140.0460  166.8086 N.ar    1  UNL1       -0.2329
      9 C         141.7849  139.6931  165.4432 C.ar    1  UNL1        0.0834
     10 N         141.3597  141.5532  168.9231 N.pl3   1  UNL1       -0.2921
     11 C         140.5239  142.7837  169.1162 C.3     1  UNL1        0.1092
     12 C         140.0129  143.1365  170.4817 C.3     1  UNL1        0.0903
     13 N         140.3377  142.2589  171.6539 N.3     1  UNL1       -0.2947
     14 C         141.1735  141.0284  171.4607 C.3     1  UNL1        0.0886
     15 C         141.6845  140.6756  170.0953 C.3     1  UNL1        0.0899
     16 C         142.5204  139.4450  169.9021 C.3     1  UNL1        0.0229
     17 H         139.4481  141.9518  172.0473 H       1  UNL1        0.1233
     18 O         140.3263  137.5866  164.6817 O.3     1  UNL1       -0.3455
     19 C         138.8831  137.9952  164.6990 C.3     1  UNL1        0.1688
     20 C         138.4834  138.0110  161.7258 C.3     1  UNL1        0.0308
     21 C         138.2519  139.2621  162.5203 C.ar    1  UNL1       -0.0233
     22 C         137.8206  140.5210  161.8283 C.ar    1  UNL1       -0.0022
     23 C         137.5891  141.7721  162.6228 C.ar    1  UNL1        0.0293
     24 C         137.7890  141.7642  164.1094 C.ar    1  UNL1        0.1399
     25 F         137.5575  143.0153  164.9039 F       1  UNL1       -0.2042
     26 C         138.2203  140.5052  164.8014 C.ar    1  UNL1        0.0275
     27 C         138.4518  139.2542  164.0069 C.ar    1  UNL1        0.0056
@<TRIPOS>BOND
     1    20    21    1
     2    21    22   ar
     3    22    23   ar
     4    23    24   ar
     5    24    25    1
     6    24    26   ar
     7    26    27   ar
     8    27    19    1
     9    19    18    1
    10     1    18    1
    11     1     2    1
    12     2     3    1
    13     3     4    1
    14     4     5   ar
    15     5     6   ar
    16     6     7   ar
    17     7    10    1
    18    10    11    1
    19    11    12    1
    20    12    13    1
    21    13    14    1
    22    14    15    1
    23    15    16    1
    24     7     8   ar
    25     8     9   ar
    26    27    21   ar
    27     9     1    1
    28     9     4   ar
    29    15    10    1
    30    13    17    1
@<TRIPOS>MOLECULE
*****
 27 30 0 0 0
SMALL
GASTEIGER

@<TRIPOS>ATOM
      1 C         139.7171  142.4909  163.9806 C.3     1  UNL1        0.1553
      2 C         140.2803  143.0605  162.7124 C.3     1  UNL1        0.0404
      3 C         141.7320  143.3592  162.9431 C.3     1  UNL1        0.0305
      4 C         142.0661  142.9742  164.3538 C.ar    1  UNL1       -0.0061
      5 C         143.3433  143.0430  165.1373 C.ar    1  UNL1       -0.0002
      6 C         143.3752  142.5750  166.5621 C.ar    1  UNL1        0.0340
      7 C         142.1299  142.0384  167.2033 C.ar    1  UNL1        0.1314
      8 N         140.8527  141.9696  166.4198 N.ar    1  UNL1       -0.2329
      9 C         140.8208  142.4375  164.9951 C.ar    1  UNL1        0.0834
     10 N         142.1619  141.5704  168.6282 N.pl3   1  UNL1       -0.2921
     11 C         141.8677  142.5329  169.7404 C.3     1  UNL1        0.1092
     12 C         141.8997  142.0649  171.1653 C.3     1  UNL1        0.0903
     13 N         142.2258  140.6345  171.4778 N.3     1  UNL1       -0.2947
     14 C         142.5199  139.6721  170.3654 C.3     1  UNL1        0.0886
     15 C         142.4880  140.1400  168.9407 C.3     1  UNL1        0.0899
     16 C         142.7821  139.1776  167.8283 C.3     1  UNL1        0.0229
     17 H         141.4298  140.2565  171.9915 H       1  UNL1        0.1233
     18 O         138.2992  142.0517  164.1965 O.3     1  UNL1       -0.3455
     19 C         137.8493  140.7048  163.7130 C.3     1  UNL1        0.1688
     20 C         138.2853  139.1023  166.2113 C.3     1  UNL1        0.0308
     21 C         139.0264  138.7503  164.9556 C.ar    1  UNL1       -0.0233
     22 C         139.9855  137.5970  164.9490 C.ar    1  UNL1       -0.0022
     23 C         140.7266  137.2450  163.6933 C.ar    1  UNL1        0.0293
     24 C         140.5087  138.0463  162.4441 C.ar    1  UNL1        0.1399
     25 F         141.2498  137.6943  161.1884 F       1  UNL1       -0.2042
     26 C         139.5495  139.1995  162.4507 C.ar    1  UNL1        0.0275
     27 C         138.8084  139.5515  163.7064 C.ar    1  UNL1        0.0056
@<TRIPOS>BOND
     1    20    21    1
     2    21    22   ar
     3    22    23   ar
     4    23    24   ar
     5    24    25    1
     6    24    26   ar
     7    26    27   ar
     8    27    19    1
     9    19    18    1
    10     1    18    1
    11     1     2    1
    12     2     3    1
    13     3     4    1
    14     4     5   ar
    15     5     6   ar
    16     6     7   ar
    17     7    10    1
    18    10    11    1
    19    11    12    1
    20    12    13    1
    21    13    14    1
    22    14    15    1
    23    15    16    1
    24     7     8   ar
    25     8     9   ar
    26    27    21   ar
    27     9     1    1
    28     9     4   ar
    29    15    10    1
    30    13    17    1
@<TRIPOS>MOLECULE
*****
 27 30 0 0 0
SMALL
GASTEIGER

@<TRIPOS>ATOM
      1 C         143.6885  142.7559  163.5812 C.3     1  UNL1        0.1553
      2 C         145.0573  142.4593  163.0440 C.3     1  UNL1        0.0404
      3 C         145.4494  141.0873  163.5065 C.3     1  UNL1        0.0305
      4 C         144.3231  140.5359  164.3295 C.ar    1  UNL1       -0.0061
      5 C         144.1478  139.2281  165.0428 C.ar    1  UNL1       -0.0002
      6 C         142.8842  138.9516  165.8023 C.ar    1  UNL1        0.0340
      7 C         141.7959  139.9828  165.8485 C.ar    1  UNL1        0.1314
      8 N         141.9712  141.2906  165.1352 N.ar    1  UNL1       -0.2329
      9 C         143.2348  141.5672  164.3757 C.ar    1  UNL1        0.0834
     10 N         140.5323  139.7062  166.6080 N.pl3   1  UNL1       -0.2921
     11 C         140.4097  140.1331  168.0407 C.3     1  UNL1        0.1092
     12 C         139.1461  139.8564  168.8003 C.3     1  UNL1        0.0903
     13 N         138.0052  139.1529  168.1270 N.3     1  UNL1       -0.2947
     14 C         138.1278  138.7260  166.6942 C.3     1  UNL1        0.0886
     15 C         139.3914  139.0026  165.9348 C.3     1  UNL1        0.0899
     16 C         139.5140  138.5757  164.5020 C.3     1  UNL1        0.0229
     17 H         137.2011  139.7782  168.1801 H       1  UNL1        0.1233
     18 O         142.9102  144.0193  163.3624 O.3     1  UNL1       -0.3455
     19 C         141.6972  144.0097  162.4799 C.3     1  UNL1        0.1688
     20 C         139.4665  142.5275  161.1282 C.3     1  UNL1        0.0308
     21 C         139.2112  143.2579  162.4132 C.ar    1  UNL1       -0.0233
     22 C         137.8405  143.2473  163.0225 C.ar    1  UNL1       -0.0022
     23 C         137.5853  143.9777  164.3075 C.ar    1  UNL1        0.0293
     24 C         138.7006  144.7188  164.9834 C.ar    1  UNL1        0.1399
     25 F         138.4453  145.4492  166.2684 F       1  UNL1       -0.2042
     26 C         140.0713  144.7294  164.3741 C.ar    1  UNL1        0.0275
     27 C         140.3265  143.9990  163.0891 C.ar    1  UNL1        0.0056
@<TRIPOS>BOND
     1    20    21    1
     2    21    22   ar
     3    22    23   ar
     4    23    24   ar
     5    24    25    1
     6    24    26   ar
     7    26    27   ar
     8    27    19    1
     9    19    18    1
    10     1    18    1
    11     1     2    1
    12     2     3    1
    13     3     4    1
    14     4     5   ar
    15     5     6   ar
    16     6     7   ar
    17     7    10    1
    18    10    11    1
    19    11    12    1
    20    12    13    1
    21    13    14    1
    22    14    15    1
    23    15    16    1
    24     7     8   ar
    25     8     9   ar
    26    27    21   ar
    27     9     1    1
    28     9     4   ar
    29    15    10    1
    30    13    17    1
@<TRIPOS>MOLECULE
*****
 27 30 0 0 0
SMALL
GASTEIGER

@<TRIPOS>ATOM
      1 C         138.3710  140.0806  164.0367 C.3     1  UNL1        0.1553
      2 C         137.6004  140.7540  162.9402 C.3     1  UNL1        0.0404
      3 C         137.6916  142.2362  163.1523 C.3     1  UNL1        0.0305
      4 C         138.5186  142.4787  164.3800 C.ar    1  UNL1       -0.0061
      5 C         138.9436  143.7405  165.0707 C.ar    1  UNL1       -0.0002
      6 C         139.7885  143.6701  166.3081 C.ar    1  UNL1        0.0340
      7 C         140.2085  142.3379  166.8547 C.ar    1  UNL1        0.1314
      8 N         139.7835  141.0760  166.1639 N.ar    1  UNL1       -0.2329
      9 C         138.9386  141.1465  164.9266 C.ar    1  UNL1        0.0834
     10 N         141.0534  142.2675  168.0921 N.pl3   1  UNL1       -0.2921
     11 C         140.4034  142.2419  169.4437 C.3     1  UNL1        0.1092
     12 C         141.2483  142.1716  170.6811 C.3     1  UNL1        0.0903
     13 N         142.7433  142.1267  170.5669 N.3     1  UNL1       -0.2947
     14 C         143.3933  142.1522  169.2153 C.3     1  UNL1        0.0886
     15 C         142.5484  142.2226  167.9779 C.3     1  UNL1        0.0899
     16 C         143.1984  142.2481  166.6263 C.3     1  UNL1        0.0229
     17 H         143.0479  141.2672  171.0239 H       1  UNL1        0.1233
     18 O         138.5439  138.6010  164.2126 O.3     1  UNL1       -0.3455
     19 C         139.7166  137.9035  163.5893 C.3     1  UNL1        0.1688
     20 C         141.1148  139.6739  161.6119 C.3     1  UNL1        0.0308
     21 C         141.8090  139.2698  162.8787 C.ar    1  UNL1       -0.0233
     22 C         143.2022  139.7509  163.1568 C.ar    1  UNL1       -0.0022
     23 C         143.8964  139.3468  164.4236 C.ar    1  UNL1        0.0293
     24 C         143.1973  138.4617  165.4124 C.ar    1  UNL1        0.1399
     25 F         143.8914  138.0576  166.6792 F       1  UNL1       -0.2042
     26 C         141.8040  137.9805  165.1343 C.ar    1  UNL1        0.0275
     27 C         141.1099  138.3846  163.8675 C.ar    1  UNL1        0.0056
@<TRIPOS>BOND
     1    20    21    1
     2    21    22   ar
     3    22    23   ar
     4    23    24   ar
     5    24    25    1
     6    24    26   ar
     7    26    27   ar
     8    27    19    1
     9    19    18    1
    10     1    18    1
    11     1     2    1
    12     2     3    1
    13     3     4    1
    14     4     5   ar
    15     5     6   ar
    16     6     7   ar
    17     7    10    1
    18    10    11    1
    19    11    12    1
    20    12    13    1
    21    13    14    1
    22    14    15    1
    23    15    16    1
    24     7     8   ar
    25     8     9   ar
    26    27    21   ar
    27     9     1    1
    28     9     4   ar
    29    15    10    1
    30    13    17    1
@<TRIPOS>MOLECULE
*****
 27 30 0 0 0
SMALL
GASTEIGER

@<TRIPOS>ATOM
      1 C         143.5353  141.4704  163.7431 C.3     1  UNL1        0.1553
      2 C         144.4182  140.5672  162.9340 C.3     1  UNL1        0.0404
      3 C         144.6528  139.3161  163.7276 C.3     1  UNL1        0.0305
      4 C         143.9149  139.4462  165.0271 C.ar    1  UNL1       -0.0061
      5 C         143.7827  138.5242  166.2029 C.ar    1  UNL1       -0.0002
      6 C         142.9598  138.9338  167.3882 C.ar    1  UNL1        0.0340
      7 C         142.2692  140.2652  167.3978 C.ar    1  UNL1        0.1314
      8 N         142.4014  141.1872  166.2220 N.ar    1  UNL1       -0.2329
      9 C         143.2242  140.7776  165.0367 C.ar    1  UNL1        0.0834
     10 N         141.4462  140.6748  168.5832 N.pl3   1  UNL1       -0.2921
     11 C         140.0239  140.2141  168.7040 C.3     1  UNL1        0.1092
     12 C         139.2009  140.6236  169.8894 C.3     1  UNL1        0.0903
     13 N         139.8005  141.4938  170.9540 N.3     1  UNL1       -0.2947
     14 C         141.2229  141.9545  170.8332 C.3     1  UNL1        0.0886
     15 C         142.0457  141.5450  169.6478 C.3     1  UNL1        0.0899
     16 C         143.4682  142.0056  169.5269 C.3     1  UNL1        0.0229
     17 H         139.7320  140.9764  171.8304 H       1  UNL1        0.1233
     18 O         143.0488  142.8282  163.3310 O.3     1  UNL1       -0.3455
     19 C         141.8044  142.9598  162.5036 C.3     1  UNL1        0.1688
     20 C         140.3715  145.5947  162.5649 C.3     1  UNL1        0.0308
     21 C         139.7504  144.3882  163.2039 C.ar    1  UNL1       -0.0233
     22 C         138.4128  144.4991  163.8736 C.ar    1  UNL1       -0.0022
     23 C         137.7916  143.2925  164.5126 C.ar    1  UNL1        0.0293
     24 C         138.5080  141.9750  164.4820 C.ar    1  UNL1        0.1399
     25 F         137.8868  140.7685  165.1210 F       1  UNL1       -0.2042
     26 C         139.8456  141.8641  163.8123 C.ar    1  UNL1        0.0275
     27 C         140.4668  143.0707  163.1733 C.ar    1  UNL1        0.0056
@<TRIPOS>BOND
     1    20    21    1
     2    21    22   ar
     3    22    23   ar
     4    23    24   ar
     5    24    25    1
     6    24    26   ar
     7    26    27   ar
     8    27    19    1
     9    19    18    1
    10     1    18    1
    11     1     2    1
    12     2     3    1
    13     3     4    1
    14     4     5   ar
    15     5     6   ar
    16     6     7   ar
    17     7    10    1
    18    10    11    1
    19    11    12    1
    20    12    13    1
    21    13    14    1
    22    14    15    1
    23    15    16    1
    24     7     8   ar
    25     8     9   ar
    26    27    21   ar
    27     9     1    1
    28     9     4   ar
    29    15    10    1
    30    13    17    1
