@<TRIPOS>MOLECULE
*****
 28 32 0 0 0
SMALL
GASTEIGER

@<TRIPOS>ATOM
      1 C         142.9799  139.6095  162.6911 C.3     1  UNL1        0.1122
      2 C         143.4008  140.6527  161.6988 C.3     1  UNL1        0.0160
      3 C         143.4317  140.3264  160.2351 C.3     1  UNL1        0.0425
      4 C         143.0417  138.9568  159.7636 C.3     1  UNL1        0.1561
      5 C         142.6209  137.9137  160.7559 C.3     1  UNL1        0.0425
      6 C         142.5899  138.2400  162.2196 C.3     1  UNL1        0.0160
      7 C         142.6812  137.6381  159.1465 C.3     1  UNL1        0.1429
      8 N         142.8552  137.7581  157.6614 N.am    1  UNL1       -0.2061
      9 C         143.3234  139.1512  157.3608 C.2     1  UNL1        0.4097
     10 O         143.6236  139.7059  155.9999 O.2     1  UNL1       -0.2258
     11 O         143.4387  139.8920  158.6599 O.3     1  UNL1       -0.4398
     12 C         142.9348  141.7308  168.7822 C.2     1  UNL1        0.0547
     13 C         142.7609  140.2758  169.1030 C.2     1  UNL1        0.0103
     14 C         142.7008  139.2657  167.9957 C.2     1  UNL1        0.0505
     15 C         142.8145  139.7105  166.5677 C.2     1  UNL1        0.2318
     16 N         142.7902  138.9506  165.2747 N.2     1  UNL1       -0.0351
     17 C         142.9490  139.9358  164.1549 C.2     1  UNL1        0.3506
     18 N         143.0715  141.3048  164.7558 N.2     1  UNL1       -0.0389
     19 C         142.9884  141.1656  166.2470 C.2     1  UNL1        0.2181
     20 C         143.0485  142.1756  167.3543 C.3     1  UNL1        0.1144
     21 N         143.0551  143.7509  170.9969 N.1     1  UNL1       -0.1911
     22 C         142.9950  142.7408  169.8895 C.1     1  UNL1        0.0965
     23 C         142.6051  136.6754  156.6539 C.ar    1  UNL1        0.1400
     24 C         143.7244  135.7704  156.2320 C.ar    1  UNL1        0.0348
     25 C         143.4742  134.6877  155.2245 C.ar    1  UNL1        0.0045
     26 C         142.1047  134.5098  154.6390 C.ar    1  UNL1        0.0208
     27 C         140.9854  135.4148  155.0610 C.ar    1  UNL1        0.1003
     28 N         141.2355  136.4976  156.0685 N.ar    1  UNL1       -0.2287
@<TRIPOS>BOND
     1    21    22    3
     2    22    12    1
     3    12    13    2
     4    13    14    1
     5    14    15    2
     6    15    16    1
     7    16    17    2
     8     1    17    1
     9     1     2    1
    10     2     3    1
    11     4     3    1
    12     4     5    1
    13     5     6    1
    14     4     7    1
    15     7     8    1
    16     8    23    1
    17    23    24   ar
    18    24    25   ar
    19    25    26   ar
    20    26    27   ar
    21    27    28   ar
    22     8     9   am
    23     9    10    2
    24     9    11    1
    25    17    18    1
    26    18    19    2
    27    19    20    1
    28    20    12    1
    29    19    15    1
    30     6     1    1
    31    28    23   ar
    32    11     4    1
@<TRIPOS>MOLECULE
*****
 28 32 0 0 0
SMALL
GASTEIGER

@<TRIPOS>ATOM
      1 C         140.8690  143.4709  162.6019 C.3     1  UNL1        0.1122
      2 C         140.5676  142.3420  161.6614 C.3     1  UNL1        0.0160
      3 C         140.2858  142.6254  160.2156 C.3     1  UNL1        0.0425
      4 C         140.3054  144.0376  159.7105 C.3     1  UNL1        0.1561
      5 C         140.6068  145.1665  160.6510 C.3     1  UNL1        0.0425
      6 C         140.8886  144.8832  162.0968 C.3     1  UNL1        0.0160
      7 C         140.2897  145.3911  159.0640 C.3     1  UNL1        0.1429
      8 N         139.9643  145.2073  157.6112 N.am    1  UNL1       -0.2061
      9 C         139.7790  143.7401  157.3598 C.2     1  UNL1        0.4097
     10 O         139.4421  143.1070  156.0425 O.2     1  UNL1       -0.2258
     11 O         139.9898  143.0173  158.6572 O.3     1  UNL1       -0.4398
     12 C         141.3622  142.4292  168.9483 C.2     1  UNL1        0.0547
     13 C         142.7831  142.0925  168.6054 C.2     1  UNL1        0.0103
     14 C         143.2495  142.1696  167.1818 C.2     1  UNL1        0.0505
     15 C         142.2950  142.5833  166.1011 C.2     1  UNL1        0.2318
     16 N         142.4661  142.7487  164.6201 N.2     1  UNL1       -0.0351
     17 C         141.1509  143.1876  164.0478 C.2     1  UNL1        0.3506
     18 N         140.1670  143.2934  165.1751 N.2     1  UNL1       -0.0389
     19 C         140.8740  142.9199  166.4441 C.2     1  UNL1        0.2181
     20 C         140.4076  142.8429  167.8676 C.3     1  UNL1        0.1144
     21 N         140.4294  142.2752  171.7954 N.1     1  UNL1       -0.1911
     22 C         140.8958  142.3522  170.3718 C.1     1  UNL1        0.0965
     23 C         139.8453  146.2988  156.5894 C.ar    1  UNL1        0.1400
     24 C         140.5897  146.1955  155.2913 C.ar    1  UNL1        0.0348
     25 C         140.4706  147.2870  154.2694 C.ar    1  UNL1        0.0045
     26 C         139.6071  148.4820  154.5456 C.ar    1  UNL1        0.0208
     27 C         138.8627  148.5854  155.8438 C.ar    1  UNL1        0.1003
     28 N         138.9818  147.4938  156.8656 N.ar    1  UNL1       -0.2287
@<TRIPOS>BOND
     1    21    22    3
     2    22    12    1
     3    12    13    2
     4    13    14    1
     5    14    15    2
     6    15    16    1
     7    16    17    2
     8     1    17    1
     9     1     2    1
    10     2     3    1
    11     4     3    1
    12     4     5    1
    13     5     6    1
    14     4     7    1
    15     7     8    1
    16     8    23    1
    17    23    24   ar
    18    24    25   ar
    19    25    26   ar
    20    26    27   ar
    21    27    28   ar
    22     8     9   am
    23     9    10    2
    24     9    11    1
    25    17    18    1
    26    18    19    2
    27    19    20    1
    28    20    12    1
    29    19    15    1
    30     6     1    1
    31    28    23   ar
    32    11     4    1
@<TRIPOS>MOLECULE
*****
 28 32 0 0 0
SMALL
GASTEIGER

@<TRIPOS>ATOM
      1 C         142.4026  139.2868  163.0605 C.3     1  UNL1        0.1122
      2 C         143.5015  138.4933  162.4182 C.3     1  UNL1        0.0160
      3 C         143.3921  138.0904  160.9775 C.3     1  UNL1        0.0425
      4 C         142.1838  138.4810  160.1792 C.3     1  UNL1        0.1561
      5 C         141.0848  139.2745  160.8215 C.3     1  UNL1        0.0425
      6 C         141.1943  139.6774  162.2622 C.3     1  UNL1        0.0160
      7 C         141.0417  138.7973  159.2595 C.3     1  UNL1        0.1429
      8 N         141.3493  138.2028  157.9170 N.am    1  UNL1       -0.2061
      9 C         142.6815  137.5191  158.0071 C.2     1  UNL1        0.4097
     10 O         143.3759  136.7913  156.8945 O.2     1  UNL1       -0.2258
     11 O         143.1972  137.6910  159.4051 O.3     1  UNL1       -0.4398
     12 C         142.9313  141.7265  169.0081 C.2     1  UNL1        0.0547
     13 C         142.8084  140.2893  169.4194 C.2     1  UNL1        0.0103
     14 C         142.6523  139.2216  168.3774 C.2     1  UNL1        0.0505
     15 C         142.6189  139.5912  166.9240 C.2     1  UNL1        0.2318
     16 N         142.4769  138.7639  165.6809 N.2     1  UNL1       -0.0351
     17 C         142.5120  139.6898  164.5013 C.2     1  UNL1        0.3506
     18 N         142.6757  141.0894  165.0154 N.2     1  UNL1       -0.0389
     19 C         142.7418  141.0286  166.5127 C.2     1  UNL1        0.2181
     20 C         142.8979  142.0961  167.5547 C.3     1  UNL1        0.1144
     21 N         143.2435  143.8617  171.0922 N.1     1  UNL1       -0.1911
     22 C         143.0874  142.7941  170.0501 C.1     1  UNL1        0.0965
     23 C         140.4778  138.2786  156.6985 C.ar    1  UNL1        0.1400
     24 C         140.6460  139.4074  155.7252 C.ar    1  UNL1        0.0348
     25 C         139.7745  139.4833  154.5068 C.ar    1  UNL1        0.0045
     26 C         138.7348  138.4304  154.2616 C.ar    1  UNL1        0.0208
     27 C         138.5665  137.3015  155.2350 C.ar    1  UNL1        0.1003
     28 N         139.4381  137.2256  156.4534 N.ar    1  UNL1       -0.2287
@<TRIPOS>BOND
     1    21    22    3
     2    22    12    1
     3    12    13    2
     4    13    14    1
     5    14    15    2
     6    15    16    1
     7    16    17    2
     8     1    17    1
     9     1     2    1
    10     2     3    1
    11     4     3    1
    12     4     5    1
    13     5     6    1
    14     4     7    1
    15     7     8    1
    16     8    23    1
    17    23    24   ar
    18    24    25   ar
    19    25    26   ar
    20    26    27   ar
    21    27    28   ar
    22     8     9   am
    23     9    10    2
    24     9    11    1
    25    17    18    1
    26    18    19    2
    27    19    20    1
    28    20    12    1
    29    19    15    1
    30     6     1    1
    31    28    23   ar
    32    11     4    1
@<TRIPOS>MOLECULE
*****
 28 32 0 0 0
SMALL
GASTEIGER

@<TRIPOS>ATOM
      1 C         139.0950  142.1217  161.3752 C.3     1  UNL1        0.1122
      2 C         137.9335  141.2422  161.7322 C.3     1  UNL1        0.0160
      3 C         137.8718  140.5928  163.0829 C.3     1  UNL1        0.0425
      4 C         138.9716  140.8229  164.0766 C.3     1  UNL1        0.1561
      5 C         140.1331  141.7023  163.7197 C.3     1  UNL1        0.0425
      6 C         140.1948  142.3517  162.3689 C.3     1  UNL1        0.0160
      7 C         139.9915  140.9594  165.1680 C.3     1  UNL1        0.1429
      8 N         139.5294  140.1438  166.3391 N.am    1  UNL1       -0.2061
      9 C         138.2237  139.5032  165.9714 C.2     1  UNL1        0.4097
     10 O         137.4065  138.6014  166.8480 O.2     1  UNL1       -0.2258
     11 O         137.8790  139.9229  164.5732 O.3     1  UNL1       -0.4398
     12 C         139.6883  145.4965  155.9105 C.2     1  UNL1        0.0547
     13 C         139.0291  144.2943  155.3023 C.2     1  UNL1        0.0103
     14 C         138.6460  143.1306  156.1680 C.2     1  UNL1        0.0505
     15 C         138.9221  143.1693  157.6418 C.2     1  UNL1        0.2318
     16 N         138.6597  142.1802  158.7385 N.2     1  UNL1       -0.0351
     17 C         139.1567  142.7711  160.0244 C.2     1  UNL1        0.3506
     18 N         139.7263  144.1255  159.7226 N.2     1  UNL1       -0.0389
     19 C         139.5814  144.3717  158.2500 C.2     1  UNL1        0.2181
     20 C         139.9644  145.5352  157.3844 C.3     1  UNL1        0.1144
     21 N         140.4545  147.8237  154.1793 N.1     1  UNL1       -0.1911
     22 C         140.0714  146.6601  155.0449 C.1     1  UNL1        0.0965
     23 C         140.2468  139.9949  167.6479 C.ar    1  UNL1        0.1400
     24 C         141.7285  139.7627  167.6688 C.ar    1  UNL1        0.0348
     25 C         142.4460  139.6139  168.9776 C.ar    1  UNL1        0.0045
     26 C         141.6817  139.6972  170.2656 C.ar    1  UNL1        0.0208
     27 C         140.1999  139.9294  170.2447 C.ar    1  UNL1        0.1003
     28 N         139.4825  140.0783  168.9359 N.ar    1  UNL1       -0.2287
@<TRIPOS>BOND
     1    21    22    3
     2    22    12    1
     3    12    13    2
     4    13    14    1
     5    14    15    2
     6    15    16    1
     7    16    17    2
     8     1    17    1
     9     1     2    1
    10     2     3    1
    11     4     3    1
    12     4     5    1
    13     5     6    1
    14     4     7    1
    15     7     8    1
    16     8    23    1
    17    23    24   ar
    18    24    25   ar
    19    25    26   ar
    20    26    27   ar
    21    27    28   ar
    22     8     9   am
    23     9    10    2
    24     9    11    1
    25    17    18    1
    26    18    19    2
    27    19    20    1
    28    20    12    1
    29    19    15    1
    30     6     1    1
    31    28    23   ar
    32    11     4    1
@<TRIPOS>MOLECULE
*****
 28 32 0 0 0
SMALL
GASTEIGER

@<TRIPOS>ATOM
      1 C         142.3607  140.2790  162.9351 C.3     1  UNL1        0.1122
      2 C         142.7845  141.1961  161.8264 C.3     1  UNL1        0.0160
      3 C         142.9276  140.6682  160.4297 C.3     1  UNL1        0.0425
      4 C         142.6469  139.2231  160.1417 C.3     1  UNL1        0.1561
      5 C         142.2231  138.3060  161.2504 C.3     1  UNL1        0.0425
      6 C         142.0800  138.8339  162.6471 C.3     1  UNL1        0.0160
      7 C         142.4020  137.8094  159.7041 C.3     1  UNL1        0.1429
      8 N         142.6637  137.7288  158.2292 N.am    1  UNL1       -0.2061
      9 C         143.0704  139.0927  157.7554 C.2     1  UNL1        0.4097
     10 O         143.4252  139.4672  156.3470 O.2     1  UNL1       -0.2258
     11 O         143.0600  140.0162  158.9373 O.3     1  UNL1       -0.4398
     12 C         141.0042  142.4657  168.8497 C.2     1  UNL1        0.0547
     13 C         142.4946  142.6015  168.9511 C.2     1  UNL1        0.0103
     14 C         143.3638  142.2122  167.7922 C.2     1  UNL1        0.0505
     15 C         142.7426  141.6871  166.5319 C.2     1  UNL1        0.2318
     16 N         143.3392  141.2271  165.2348 N.2     1  UNL1       -0.0351
     17 C         142.2176  140.8069  164.3319 C.2     1  UNL1        0.3506
     18 N         140.9277  141.0073  165.0708 N.2     1  UNL1       -0.0389
     19 C         141.2521  141.5513  166.4305 C.2     1  UNL1        0.2181
     20 C         140.3830  141.9406  167.5894 C.3     1  UNL1        0.1144
     21 N         139.2660  143.2442  171.1676 N.1     1  UNL1       -0.1911
     22 C         140.1351  142.8549  170.0086 C.1     1  UNL1        0.0965
     23 C         142.5404  136.5000  157.3778 C.ar    1  UNL1        0.1400
     24 C         141.5722  136.4753  156.2324 C.ar    1  UNL1        0.0348
     25 C         141.4490  135.2466  155.3810 C.ar    1  UNL1        0.0045
     26 C         142.2939  134.0426  155.6749 C.ar    1  UNL1        0.0208
     27 C         143.2621  134.0673  156.8203 C.ar    1  UNL1        0.1003
     28 N         143.3854  135.2960  157.6717 N.ar    1  UNL1       -0.2287
@<TRIPOS>BOND
     1    21    22    3
     2    22    12    1
     3    12    13    2
     4    13    14    1
     5    14    15    2
     6    15    16    1
     7    16    17    2
     8     1    17    1
     9     1     2    1
    10     2     3    1
    11     4     3    1
    12     4     5    1
    13     5     6    1
    14     4     7    1
    15     7     8    1
    16     8    23    1
    17    23    24   ar
    18    24    25   ar
    19    25    26   ar
    20    26    27   ar
    21    27    28   ar
    22     8     9   am
    23     9    10    2
    24     9    11    1
    25    17    18    1
    26    18    19    2
    27    19    20    1
    28    20    12    1
    29    19    15    1
    30     6     1    1
    31    28    23   ar
    32    11     4    1
@<TRIPOS>MOLECULE
*****
 28 32 0 0 0
SMALL
GASTEIGER

@<TRIPOS>ATOM
      1 C         142.2442  139.9917  160.6765 C.3     1  UNL1        0.1122
      2 C         142.1772  138.8468  159.7098 C.3     1  UNL1        0.0160
      3 C         142.9312  138.9137  158.4148 C.3     1  UNL1        0.0425
      4 C         143.7522  140.1254  158.0866 C.3     1  UNL1        0.1561
      5 C         143.8191  141.2703  159.0533 C.3     1  UNL1        0.0425
      6 C         143.0652  141.2035  160.3483 C.3     1  UNL1        0.0160
      7 C         144.6101  141.2654  157.6237 C.3     1  UNL1        0.1429
      8 N         145.1688  140.9085  156.2781 N.am    1  UNL1       -0.2061
      9 C         144.6562  139.5479  155.9094 C.2     1  UNL1        0.4097
     10 O         144.9648  138.8022  154.6451 O.2     1  UNL1       -0.2258
     11 O         143.7807  139.0639  157.0271 O.3     1  UNL1       -0.4398
     12 C         138.6949  139.0708  165.9830 C.2     1  UNL1        0.0547
     13 C         139.3529  140.3419  166.4317 C.2     1  UNL1        0.0103
     14 C         140.3349  141.0354  165.5345 C.2     1  UNL1        0.0505
     15 C         140.6589  140.4577  164.1887 C.2     1  UNL1        0.2318
     16 N         141.5793  140.9140  163.0957 N.2     1  UNL1       -0.0351
     17 C         141.4902  139.9249  161.9716 C.2     1  UNL1        0.3506
     18 N         140.5146  138.8573  162.3698 N.2     1  UNL1       -0.0389
     19 C         140.0009  139.1865  163.7400 C.2     1  UNL1        0.2181
     20 C         139.0189  138.4931  164.6372 C.3     1  UNL1        0.1144
     21 N         136.7309  137.6840  167.7773 N.1     1  UNL1       -0.1911
     22 C         137.7129  138.3775  166.8801 C.1     1  UNL1        0.0965
     23 C         146.0802  141.7623  155.4471 C.ar    1  UNL1        0.1400
     24 C         145.5230  142.9172  154.6689 C.ar    1  UNL1        0.0348
     25 C         146.4343  143.7710  153.8380 C.ar    1  UNL1        0.0045
     26 C         147.9028  143.4699  153.7852 C.ar    1  UNL1        0.0208
     27 C         148.4600  142.3149  154.5634 C.ar    1  UNL1        0.1003
     28 N         147.5487  141.4611  155.3943 N.ar    1  UNL1       -0.2287
@<TRIPOS>BOND
     1    21    22    3
     2    22    12    1
     3    12    13    2
     4    13    14    1
     5    14    15    2
     6    15    16    1
     7    16    17    2
     8     1    17    1
     9     1     2    1
    10     2     3    1
    11     4     3    1
    12     4     5    1
    13     5     6    1
    14     4     7    1
    15     7     8    1
    16     8    23    1
    17    23    24   ar
    18    24    25   ar
    19    25    26   ar
    20    26    27   ar
    21    27    28   ar
    22     8     9   am
    23     9    10    2
    24     9    11    1
    25    17    18    1
    26    18    19    2
    27    19    20    1
    28    20    12    1
    29    19    15    1
    30     6     1    1
    31    28    23   ar
    32    11     4    1
@<TRIPOS>MOLECULE
*****
 28 32 0 0 0
SMALL
GASTEIGER

@<TRIPOS>ATOM
      1 C         139.8039  142.7574  162.6309 C.3     1  UNL1        0.1122
      2 C         140.6011  143.9552  162.2071 C.3     1  UNL1        0.0160
      3 C         140.5751  144.4055  160.7765 C.3     1  UNL1        0.0425
      4 C         139.7519  143.6580  159.7698 C.3     1  UNL1        0.1561
      5 C         138.9547  142.4602  160.1936 C.3     1  UNL1        0.0425
      6 C         138.9806  142.0099  161.6242 C.3     1  UNL1        0.0160
      7 C         138.9797  143.0140  158.6566 C.3     1  UNL1        0.1429
      8 N         139.2441  143.7894  157.4000 N.am    1  UNL1       -0.2061
      9 C         140.1797  144.9125  157.7366 C.2     1  UNL1        0.4097
     10 O         140.7086  145.9369  156.7771 O.2     1  UNL1       -0.2258
     11 O         140.4936  144.8313  159.2011 O.3     1  UNL1       -0.4398
     12 C         140.1857  141.5028  168.9463 C.2     1  UNL1        0.0547
     13 C         139.6439  140.1658  168.5353 C.2     1  UNL1        0.0103
     14 C         139.3505  139.8873  167.0909 C.2     1  UNL1        0.0505
     15 C         139.5989  140.9457  166.0575 C.2     1  UNL1        0.2318
     16 N         139.4068  140.9608  164.5699 N.2     1  UNL1       -0.0351
     17 C         139.8299  142.3071  164.0615 C.2     1  UNL1        0.3506
     18 N         140.2835  143.1241  165.2349 N.2     1  UNL1       -0.0389
     19 C         140.1408  142.2827  166.4685 C.2     1  UNL1        0.2181
     20 C         140.4342  142.5612  167.9129 C.3     1  UNL1        0.1144
     21 N         140.7725  142.0598  171.8352 N.1     1  UNL1       -0.1911
     22 C         140.4791  141.7813  170.3907 C.1     1  UNL1        0.0965
     23 C         138.6732  143.4935  156.0448 C.ar    1  UNL1        0.1400
     24 C         137.6375  144.4025  155.4526 C.ar    1  UNL1        0.0348
     25 C         137.0665  144.1067  154.0975 C.ar    1  UNL1        0.0045
     26 C         137.5313  142.9018  153.3345 C.ar    1  UNL1        0.0208
     27 C         138.5670  141.9927  153.9268 C.ar    1  UNL1        0.1003
     28 N         139.1380  142.2885  155.2820 N.ar    1  UNL1       -0.2287
@<TRIPOS>BOND
     1    21    22    3
     2    22    12    1
     3    12    13    2
     4    13    14    1
     5    14    15    2
     6    15    16    1
     7    16    17    2
     8     1    17    1
     9     1     2    1
    10     2     3    1
    11     4     3    1
    12     4     5    1
    13     5     6    1
    14     4     7    1
    15     7     8    1
    16     8    23    1
    17    23    24   ar
    18    24    25   ar
    19    25    26   ar
    20    26    27   ar
    21    27    28   ar
    22     8     9   am
    23     9    10    2
    24     9    11    1
    25    17    18    1
    26    18    19    2
    27    19    20    1
    28    20    12    1
    29    19    15    1
    30     6     1    1
    31    28    23   ar
    32    11     4    1
@<TRIPOS>MOLECULE
*****
 28 32 0 0 0
SMALL
GASTEIGER

@<TRIPOS>ATOM
      1 C         141.8511  138.5333  157.9965 C.3     1  UNL1        0.1122
      2 C         142.5123  139.7876  157.5071 C.3     1  UNL1        0.0160
      3 C         142.2937  141.0825  158.2320 C.3     1  UNL1        0.0425
      4 C         141.4139  141.1230  159.4462 C.3     1  UNL1        0.1561
      5 C         140.7527  139.8687  159.9356 C.3     1  UNL1        0.0425
      6 C         140.9713  138.5739  159.2107 C.3     1  UNL1        0.0160
      7 C         140.5657  141.3173  160.6680 C.3     1  UNL1        0.1429
      8 N         140.6327  142.7654  161.0535 N.am    1  UNL1       -0.2061
      9 C         141.5224  143.4662  160.0699 C.2     1  UNL1        0.4097
     10 O         141.8685  144.9256  160.0782 O.2     1  UNL1       -0.2258
     11 O         142.0052  142.4512  159.0766 O.3     1  UNL1       -0.4398
     12 C         143.3277  132.8229  155.3858 C.2     1  UNL1        0.0547
     13 C         142.2416  133.1826  154.4158 C.2     1  UNL1        0.0103
     14 C         141.5092  134.4839  154.5585 C.2     1  UNL1        0.0505
     15 C         141.8630  135.4255  155.6712 C.2     1  UNL1        0.2318
     16 N         141.3195  136.7682  156.0608 N.2     1  UNL1       -0.0351
     17 C         142.0696  137.2383  157.2716 C.2     1  UNL1        0.3506
     18 N         143.0768  136.1862  157.6304 N.2     1  UNL1       -0.0389
     19 C         142.9491  135.0658  156.6413 C.2     1  UNL1        0.2181
     20 C         143.6814  133.7645  156.4986 C.3     1  UNL1        0.1144
     21 N         144.7924  130.2204  155.1004 N.1     1  UNL1       -0.1911
     22 C         144.0600  131.5217  155.2431 C.1     1  UNL1        0.0965
     23 C         139.9329  143.4011  162.2181 C.ar    1  UNL1        0.1400
     24 C         140.6937  143.7077  163.4738 C.ar    1  UNL1        0.0348
     25 C         139.9940  144.3434  164.6384 C.ar    1  UNL1        0.0045
     26 C         138.5334  144.6725  164.5472 C.ar    1  UNL1        0.0208
     27 C         137.7726  144.3659  163.2913 C.ar    1  UNL1        0.1003
     28 N         138.4723  143.7302  162.1268 N.ar    1  UNL1       -0.2287
@<TRIPOS>BOND
     1    21    22    3
     2    22    12    1
     3    12    13    2
     4    13    14    1
     5    14    15    2
     6    15    16    1
     7    16    17    2
     8     1    17    1
     9     1     2    1
    10     2     3    1
    11     4     3    1
    12     4     5    1
    13     5     6    1
    14     4     7    1
    15     7     8    1
    16     8    23    1
    17    23    24   ar
    18    24    25   ar
    19    25    26   ar
    20    26    27   ar
    21    27    28   ar
    22     8     9   am
    23     9    10    2
    24     9    11    1
    25    17    18    1
    26    18    19    2
    27    19    20    1
    28    20    12    1
    29    19    15    1
    30     6     1    1
    31    28    23   ar
    32    11     4    1
@<TRIPOS>MOLECULE
*****
 28 32 0 0 0
SMALL
GASTEIGER

@<TRIPOS>ATOM
      1 C         143.1662  141.7294  162.1084 C.3     1  UNL1        0.1122
      2 C         143.0324  140.3762  161.4752 C.3     1  UNL1        0.0160
      3 C         143.5265  140.1502  160.0771 C.3     1  UNL1        0.0425
      4 C         144.1544  141.2774  159.3122 C.3     1  UNL1        0.1561
      5 C         144.2882  142.6306  159.9453 C.3     1  UNL1        0.0425
      6 C         143.7941  142.8566  161.3434 C.3     1  UNL1        0.0160
      7 C         144.8006  142.3032  158.4288 C.3     1  UNL1        0.1429
      8 N         145.1347  141.6456  157.1225 N.am    1  UNL1       -0.2061
      9 C         144.6949  140.2135  157.1987 C.2     1  UNL1        0.4097
     10 O         144.8361  139.1890  156.1123 O.2     1  UNL1       -0.2258
     11 O         144.0891  139.9860  158.5519 O.3     1  UNL1       -0.4398
     12 C         141.7307  142.5074  168.3485 C.2     1  UNL1        0.0547
     13 C         140.3814  142.8822  167.8111 C.2     1  UNL1        0.0103
     14 C         140.1346  142.8739  166.3315 C.2     1  UNL1        0.0505
     15 C         141.2371  142.4907  165.3894 C.2     1  UNL1        0.2318
     16 N         141.2900  142.3916  163.8936 N.2     1  UNL1       -0.0351
     17 C         142.6721  141.9555  163.5066 C.2     1  UNL1        0.3506
     18 N         143.4733  141.7851  164.7632 N.2     1  UNL1       -0.0389
     19 C         142.5865  142.1159  165.9268 C.2     1  UNL1        0.2181
     20 C         142.8332  142.1242  167.4063 C.3     1  UNL1        0.1144
     21 N         142.2242  142.5240  171.3076 N.1     1  UNL1       -0.1911
     22 C         141.9774  142.5157  169.8280 C.1     1  UNL1        0.0965
     23 C         145.7929  142.3045  155.9467 C.ar    1  UNL1        0.1400
     24 C         147.2810  142.2233  155.7775 C.ar    1  UNL1        0.0348
     25 C         147.9392  142.8822  154.6017 C.ar    1  UNL1        0.0045
     26 C         147.1093  143.6223  153.5951 C.ar    1  UNL1        0.0208
     27 C         145.6211  143.7036  153.7643 C.ar    1  UNL1        0.1003
     28 N         144.9629  143.0447  154.9401 N.ar    1  UNL1       -0.2287
@<TRIPOS>BOND
     1    21    22    3
     2    22    12    1
     3    12    13    2
     4    13    14    1
     5    14    15    2
     6    15    16    1
     7    16    17    2
     8     1    17    1
     9     1     2    1
    10     2     3    1
    11     4     3    1
    12     4     5    1
    13     5     6    1
    14     4     7    1
    15     7     8    1
    16     8    23    1
    17    23    24   ar
    18    24    25   ar
    19    25    26   ar
    20    26    27   ar
    21    27    28   ar
    22     8     9   am
    23     9    10    2
    24     9    11    1
    25    17    18    1
    26    18    19    2
    27    19    20    1
    28    20    12    1
    29    19    15    1
    30     6     1    1
    31    28    23   ar
    32    11     4    1
