@<TRIPOS>MOLECULE
*****
 26 28 0 0 0
SMALL
GASTEIGER

@<TRIPOS>ATOM
      1 C         138.5289  140.0434  165.4956 C.3     1  UNL1        0.0992
      2 C         137.4634  138.2792  167.0774 C.3     1  UNL1        0.0902
      3 N         138.2978  138.6110  165.8759 N.3     1  UNL1       -0.2639
      4 C         138.9011  137.5103  165.0546 C.3     1  UNL1        0.0995
      5 C         140.1851  137.7438  164.3149 C.ar    1  UNL1       -0.0029
      6 C         141.4403  138.0601  165.0727 C.ar    1  UNL1        0.0004
      7 C         142.7242  138.2936  164.3331 C.ar    1  UNL1        0.0399
      8 C         142.7529  138.2108  162.8357 C.ar    1  UNL1        0.1764
      9 C         141.4976  137.8945  162.0778 C.ar    1  UNL1        0.1762
     10 C         140.2137  137.6610  162.8174 C.ar    1  UNL1        0.0373
     11 O         141.8304  137.8795  160.6153 O.3     1  UNL1       -0.4346
     12 C         143.2914  138.1865  160.4693 C.3     1  UNL1        0.4294
     13 O         143.8615  138.3913  161.8415 O.3     1  UNL1       -0.4346
     14 C         139.4018  140.9146  166.3495 C.2     1  UNL1       -0.0088
     15 C         139.9832  140.3755  167.6228 C.2     1  UNL1       -0.0032
     16 C         140.8561  141.2466  168.4767 C.ar    1  UNL1        0.0038
     17 C         140.3195  142.5335  169.0299 C.ar    1  UNL1        0.0022
     18 C         141.1924  143.4047  169.8837 C.ar    1  UNL1        0.0296
     19 C         142.6019  142.9890  170.1845 C.ar    1  UNL1        0.1401
     20 F         143.4748  143.8602  171.0384 F       1  UNL1       -0.2042
     21 C         143.1385  141.7021  169.6314 C.ar    1  UNL1        0.0335
     22 C         142.2657  140.8309  168.7775 C.ar    1  UNL1        0.0736
     23 C         142.8023  139.5440  168.2243 C.3     1  UNL1        0.4186
     24 F         143.3389  138.2571  167.6712 F       1  UNL1       -0.1659
     25 F         143.1618  140.2431  166.9468 F       1  UNL1       -0.1659
     26 F         142.4427  138.8450  169.5019 F       1  UNL1       -0.1659
@<TRIPOS>BOND
     1     2     3    1
     2     3     1    1
     3     1    14    1
     4    14    15    2
     5    15    16    1
     6    16    17   ar
     7    17    18   ar
     8    18    19   ar
     9    19    20    1
    10    19    21   ar
    11    21    22   ar
    12    22    23    1
    13    23    24    1
    14    23    25    1
    15    23    26    1
    16     3     4    1
    17     4     5    1
    18     5     6   ar
    19     6     7   ar
    20     7     8   ar
    21     8     9   ar
    22     9    10   ar
    23     9    11    1
    24    11    12    1
    25    12    13    1
    26    22    16   ar
    27    10     5   ar
    28    13     8    1
@<TRIPOS>MOLECULE
*****
 26 28 0 0 0
SMALL
GASTEIGER

@<TRIPOS>ATOM
      1 C         138.8427  138.3547  164.4337 C.3     1  UNL1        0.0992
      2 C         138.3005  138.2391  161.8955 C.3     1  UNL1        0.0902
      3 N         138.2949  138.9935  163.1920 N.3     1  UNL1       -0.2639
      4 C         137.7417  140.3867  163.2467 C.3     1  UNL1        0.0995
      5 C         138.6032  141.5516  162.8582 C.ar    1  UNL1       -0.0029
      6 C         140.0674  141.3495  162.6035 C.ar    1  UNL1        0.0004
      7 C         140.9289  142.5144  162.2150 C.ar    1  UNL1        0.0399
      8 C         140.3260  143.8814  162.0812 C.ar    1  UNL1        0.1764
      9 C         138.8617  144.0835  162.3359 C.ar    1  UNL1        0.1762
     10 C         138.0002  142.9186  162.7243 C.ar    1  UNL1        0.0373
     11 O         138.5511  145.5361  162.1278 O.3     1  UNL1       -0.4346
     12 C         139.8236  146.2318  161.7445 C.3     1  UNL1        0.4294
     13 O         140.9205  145.2092  161.7157 O.3     1  UNL1       -0.4346
     14 C         138.8121  139.0987  165.7359 C.2     1  UNL1       -0.0088
     15 C         139.9571  139.9892  166.1180 C.2     1  UNL1       -0.0032
     16 C         139.9265  140.7332  167.4201 C.ar    1  UNL1        0.0038
     17 C         139.3143  140.0975  168.6329 C.ar    1  UNL1        0.0022
     18 C         139.2837  140.8414  169.9351 C.ar    1  UNL1        0.0296
     19 C         139.8654  142.2212  170.0244 C.ar    1  UNL1        0.1401
     20 F         139.8348  142.9651  171.3266 F       1  UNL1       -0.2042
     21 C         140.4776  142.8569  168.8116 C.ar    1  UNL1        0.0335
     22 C         140.5082  142.1130  167.5094 C.ar    1  UNL1        0.0736
     23 C         141.1204  142.7488  166.2966 C.3     1  UNL1        0.4186
     24 F         141.7328  143.3845  165.0838 F       1  UNL1       -0.1659
     25 F         139.7694  143.2460  165.8753 F       1  UNL1       -0.1659
     26 F         142.4715  142.2514  166.7180 F       1  UNL1       -0.1659
@<TRIPOS>BOND
     1     2     3    1
     2     3     1    1
     3     1    14    1
     4    14    15    2
     5    15    16    1
     6    16    17   ar
     7    17    18   ar
     8    18    19   ar
     9    19    20    1
    10    19    21   ar
    11    21    22   ar
    12    22    23    1
    13    23    24    1
    14    23    25    1
    15    23    26    1
    16     3     4    1
    17     4     5    1
    18     5     6   ar
    19     6     7   ar
    20     7     8   ar
    21     8     9   ar
    22     9    10   ar
    23     9    11    1
    24    11    12    1
    25    12    13    1
    26    22    16   ar
    27    10     5   ar
    28    13     8    1
@<TRIPOS>MOLECULE
*****
 26 28 0 0 0
SMALL
GASTEIGER

@<TRIPOS>ATOM
      1 C         138.1923  138.9425  166.5940 C.3     1  UNL1        0.0992
      2 C         139.6576  137.7146  164.8348 C.3     1  UNL1        0.0902
      3 N         138.6680  138.7876  165.1799 N.3     1  UNL1       -0.2639
      4 C         138.1540  139.7058  164.1109 C.3     1  UNL1        0.0995
      5 C         138.6682  141.1120  164.0190 C.ar    1  UNL1       -0.0029
      6 C         137.8376  142.2495  164.5348 C.ar    1  UNL1        0.0004
      7 C         138.3518  143.6556  164.4429 C.ar    1  UNL1        0.0399
      8 C         139.6966  143.9241  163.8351 C.ar    1  UNL1        0.1764
      9 C         140.5272  142.7866  163.3192 C.ar    1  UNL1        0.1762
     10 C         140.0130  141.3805  163.4111 C.ar    1  UNL1        0.0373
     11 O         141.8046  143.3546  162.7756 O.3     1  UNL1       -0.4346
     12 C         141.7635  144.8432  162.9556 C.3     1  UNL1        0.4294
     13 O         140.4607  145.1952  163.6104 O.3     1  UNL1       -0.4346
     14 C         139.0261  139.6959  167.5875 C.2     1  UNL1       -0.0088
     15 C         140.0823  140.6486  167.1110 C.2     1  UNL1       -0.0032
     16 C         140.9161  141.4020  168.1046 C.ar    1  UNL1        0.0038
     17 C         140.3762  142.6450  168.7475 C.ar    1  UNL1        0.0022
     18 C         141.2100  143.3984  169.7410 C.ar    1  UNL1        0.0296
     19 C         142.5838  142.9088  170.0916 C.ar    1  UNL1        0.1401
     20 F         143.4177  143.6623  171.0851 F       1  UNL1       -0.2042
     21 C         143.1238  141.6658  169.4487 C.ar    1  UNL1        0.0335
     22 C         142.2900  140.9124  168.4552 C.ar    1  UNL1        0.0736
     23 C         142.8300  139.6694  167.8123 C.3     1  UNL1        0.4186
     24 F         143.3700  138.4263  167.1694 F       1  UNL1       -0.1659
     25 F         143.2175  140.4644  166.6007 F       1  UNL1       -0.1659
     26 F         142.4425  138.8744  169.0239 F       1  UNL1       -0.1659
@<TRIPOS>BOND
     1     2     3    1
     2     3     1    1
     3     1    14    1
     4    14    15    2
     5    15    16    1
     6    16    17   ar
     7    17    18   ar
     8    18    19   ar
     9    19    20    1
    10    19    21   ar
    11    21    22   ar
    12    22    23    1
    13    23    24    1
    14    23    25    1
    15    23    26    1
    16     3     4    1
    17     4     5    1
    18     5     6   ar
    19     6     7   ar
    20     7     8   ar
    21     8     9   ar
    22     9    10   ar
    23     9    11    1
    24    11    12    1
    25    12    13    1
    26    22    16   ar
    27    10     5   ar
    28    13     8    1
@<TRIPOS>MOLECULE
*****
 26 28 0 0 0
SMALL
GASTEIGER

@<TRIPOS>ATOM
      1 C         139.6952  143.6148  165.3024 C.3     1  UNL1        0.0992
      2 C         138.0072  143.7232  163.3304 C.3     1  UNL1        0.0902
      3 N         138.6246  142.9712  164.4721 N.3     1  UNL1       -0.2639
      4 C         138.1712  141.5757  164.7835 C.3     1  UNL1        0.0995
      5 C         138.8805  140.4030  164.1736 C.ar    1  UNL1       -0.0029
      6 C         138.4710  139.0067  164.5375 C.ar    1  UNL1        0.0004
      7 C         139.1803  137.8341  163.9277 C.ar    1  UNL1        0.0399
      8 C         140.2991  138.0579  162.9539 C.ar    1  UNL1        0.1764
      9 C         140.7086  139.4542  162.5900 C.ar    1  UNL1        0.1762
     10 C         139.9994  140.6268  163.1999 C.ar    1  UNL1        0.0373
     11 O         141.8389  139.3648  161.6080 O.3     1  UNL1       -0.4346
     12 C         142.1280  137.9131  161.3650 C.3     1  UNL1        0.4294
     13 O         141.1763  137.1053  162.1969 O.3     1  UNL1       -0.4346
     14 C         140.5596  142.7740  166.1946 C.2     1  UNL1       -0.0088
     15 C         140.3265  142.7686  167.6763 C.2     1  UNL1       -0.0032
     16 C         141.1909  141.9278  168.5685 C.ar    1  UNL1        0.0038
     17 C         142.4662  142.4895  169.1233 C.ar    1  UNL1        0.0022
     18 C         143.3305  141.6486  170.0155 C.ar    1  UNL1        0.0296
     19 C         142.9195  140.2460  170.3528 C.ar    1  UNL1        0.1401
     20 F         143.7839  139.4052  171.2449 F       1  UNL1       -0.2042
     21 C         141.6442  139.6843  169.7979 C.ar    1  UNL1        0.0335
     22 C         140.7798  140.5251  168.9058 C.ar    1  UNL1        0.0736
     23 C         139.5044  139.9634  168.3510 C.3     1  UNL1        0.4186
     24 F         138.2291  139.4016  167.7960 F       1  UNL1       -0.1659
     25 F         138.7640  140.4482  169.5620 F       1  UNL1       -0.1659
     26 F         140.2450  139.4785  167.1399 F       1  UNL1       -0.1659
@<TRIPOS>BOND
     1     2     3    1
     2     3     1    1
     3     1    14    1
     4    14    15    2
     5    15    16    1
     6    16    17   ar
     7    17    18   ar
     8    18    19   ar
     9    19    20    1
    10    19    21   ar
    11    21    22   ar
    12    22    23    1
    13    23    24    1
    14    23    25    1
    15    23    26    1
    16     3     4    1
    17     4     5    1
    18     5     6   ar
    19     6     7   ar
    20     7     8   ar
    21     8     9   ar
    22     9    10   ar
    23     9    11    1
    24    11    12    1
    25    12    13    1
    26    22    16   ar
    27    10     5   ar
    28    13     8    1
@<TRIPOS>MOLECULE
*****
 26 28 0 0 0
SMALL
GASTEIGER

@<TRIPOS>ATOM
      1 C         143.4402  138.1761  166.1276 C.3     1  UNL1        0.0992
      2 C         141.4646  137.3227  164.6721 C.3     1  UNL1        0.0902
      3 N         142.7539  138.0791  164.7974 N.3     1  UNL1       -0.2639
      4 C         143.3568  138.7384  163.5925 C.3     1  UNL1        0.0995
      5 C         143.6281  140.2137  163.6018 C.ar    1  UNL1       -0.0029
      6 C         145.0271  140.7177  163.7984 C.ar    1  UNL1        0.0004
      7 C         145.2984  142.1929  163.8077 C.ar    1  UNL1        0.0399
      8 C         144.1707  143.1641  163.6204 C.ar    1  UNL1        0.1764
      9 C         142.7717  142.6600  163.4238 C.ar    1  UNL1        0.1762
     10 C         142.5003  141.1848  163.4144 C.ar    1  UNL1        0.0373
     11 O         141.8691  143.8475  163.2652 O.3     1  UNL1       -0.4346
     12 C         142.7103  145.0855  163.3639 C.3     1  UNL1        0.4294
     13 O         144.1327  144.6632  163.5834 O.3     1  UNL1       -0.4346
     14 C         142.8529  139.0271  167.2143 C.2     1  UNL1       -0.0088
     15 C         141.6208  139.8398  166.9472 C.2     1  UNL1       -0.0032
     16 C         141.0335  140.6908  168.0339 C.ar    1  UNL1        0.0038
     17 C         139.8471  140.2021  168.8107 C.ar    1  UNL1        0.0022
     18 C         139.2597  141.0531  169.8974 C.ar    1  UNL1        0.0296
     19 C         139.8588  142.3928  170.2073 C.ar    1  UNL1        0.1401
     20 F         139.2715  143.2438  171.2940 F       1  UNL1       -0.2042
     21 C         141.0453  142.8816  169.4305 C.ar    1  UNL1        0.0335
     22 C         141.6326  142.0306  168.3438 C.ar    1  UNL1        0.0736
     23 C         142.8191  142.5194  167.5670 C.3     1  UNL1        0.4186
     24 F         144.0056  143.0082  166.7902 F       1  UNL1       -0.1659
     25 F         141.9203  142.8812  166.4219 F       1  UNL1       -0.1659
     26 F         143.7178  142.1576  168.7122 F       1  UNL1       -0.1659
@<TRIPOS>BOND
     1     2     3    1
     2     3     1    1
     3     1    14    1
     4    14    15    2
     5    15    16    1
     6    16    17   ar
     7    17    18   ar
     8    18    19   ar
     9    19    20    1
    10    19    21   ar
    11    21    22   ar
    12    22    23    1
    13    23    24    1
    14    23    25    1
    15    23    26    1
    16     3     4    1
    17     4     5    1
    18     5     6   ar
    19     6     7   ar
    20     7     8   ar
    21     8     9   ar
    22     9    10   ar
    23     9    11    1
    24    11    12    1
    25    12    13    1
    26    22    16   ar
    27    10     5   ar
    28    13     8    1
@<TRIPOS>MOLECULE
*****
 26 28 0 0 0
SMALL
GASTEIGER

@<TRIPOS>ATOM
      1 C         139.7033  139.9934  168.5711 C.3     1  UNL1        0.0992
      2 C         140.2485  142.5013  168.9752 C.3     1  UNL1        0.0902
      3 N         140.7092  141.0926  168.7440 N.3     1  UNL1       -0.2639
      4 C         142.1757  140.7832  168.6856 C.3     1  UNL1        0.0995
      5 C         142.7946  140.3231  167.3989 C.ar    1  UNL1       -0.0029
      6 C         143.0863  138.8674  167.1854 C.ar    1  UNL1        0.0004
      7 C         143.7051  138.4074  165.8987 C.ar    1  UNL1        0.0399
      8 C         144.0322  139.4031  164.8256 C.ar    1  UNL1        0.1764
      9 C         143.7404  140.8589  165.0392 C.ar    1  UNL1        0.1762
     10 C         143.1216  141.3189  166.3258 C.ar    1  UNL1        0.0373
     11 O         144.1697  141.6029  163.8095 O.3     1  UNL1       -0.4346
     12 C         144.7267  140.6069  162.8359 C.3     1  UNL1        0.4294
     13 O         144.6417  139.2474  163.4639 O.3     1  UNL1       -0.4346
     14 C         139.0217  139.8017  167.2487 C.2     1  UNL1       -0.0088
     15 C         139.7311  140.1689  165.9791 C.2     1  UNL1       -0.0032
     16 C         139.0495  139.9772  164.6567 C.ar    1  UNL1        0.0038
     17 C         138.1458  141.0456  164.1167 C.ar    1  UNL1        0.0022
     18 C         137.4643  140.8539  162.7943 C.ar    1  UNL1        0.0296
     19 C         137.6864  139.5936  162.0118 C.ar    1  UNL1        0.1401
     20 F         137.0048  139.4018  160.6895 F       1  UNL1       -0.2042
     21 C         138.5901  138.5250  162.5518 C.ar    1  UNL1        0.0335
     22 C         139.2716  138.7168  163.8742 C.ar    1  UNL1        0.0736
     23 C         140.1753  137.6482  164.4141 C.3     1  UNL1        0.4186
     24 F         141.0790  136.5796  164.9541 F       1  UNL1       -0.1659
     25 F         141.3053  138.1859  163.5871 F       1  UNL1       -0.1659
     26 F         139.0452  137.1105  165.2411 F       1  UNL1       -0.1659
@<TRIPOS>BOND
     1     2     3    1
     2     3     1    1
     3     1    14    1
     4    14    15    2
     5    15    16    1
     6    16    17   ar
     7    17    18   ar
     8    18    19   ar
     9    19    20    1
    10    19    21   ar
    11    21    22   ar
    12    22    23    1
    13    23    24    1
    14    23    25    1
    15    23    26    1
    16     3     4    1
    17     4     5    1
    18     5     6   ar
    19     6     7   ar
    20     7     8   ar
    21     8     9   ar
    22     9    10   ar
    23     9    11    1
    24    11    12    1
    25    12    13    1
    26    22    16   ar
    27    10     5   ar
    28    13     8    1
@<TRIPOS>MOLECULE
*****
 26 28 0 0 0
SMALL
GASTEIGER

@<TRIPOS>ATOM
      1 C         138.7311  137.7267  164.2558 C.3     1  UNL1        0.0992
      2 C         139.3726  138.0548  161.7596 C.3     1  UNL1        0.0902
      3 N         139.7491  137.6577  163.1562 N.3     1  UNL1       -0.2639
      4 C         141.1435  137.1914  163.4533 C.3     1  UNL1        0.0995
      5 C         142.2193  138.1910  163.7595 C.ar    1  UNL1       -0.0029
      6 C         142.7027  138.3644  165.1687 C.ar    1  UNL1        0.0004
      7 C         143.7785  139.3639  165.4750 C.ar    1  UNL1        0.0399
      8 C         144.3707  140.1899  164.3719 C.ar    1  UNL1        0.1764
      9 C         143.8873  140.0165  162.9625 C.ar    1  UNL1        0.1762
     10 C         142.8115  139.0170  162.6563 C.ar    1  UNL1        0.0373
     11 O         144.6538  140.9653  162.0894 O.3     1  UNL1       -0.4346
     12 C         145.6109  141.7251  162.9591 C.3     1  UNL1        0.4294
     13 O         145.4361  141.2459  164.3698 O.3     1  UNL1       -0.4346
     14 C         139.0545  138.4432  165.5333 C.2     1  UNL1       -0.0088
     15 C         139.3474  139.9142  165.5148 C.2     1  UNL1       -0.0032
     16 C         139.6708  140.6307  166.7923 C.ar    1  UNL1        0.0038
     17 C         139.4336  139.9566  168.1111 C.ar    1  UNL1        0.0022
     18 C         139.7569  140.6731  169.3886 C.ar    1  UNL1        0.0296
     19 C         140.3176  142.0637  169.3474 C.ar    1  UNL1        0.1401
     20 F         140.6409  142.7802  170.6249 F       1  UNL1       -0.2042
     21 C         140.5548  142.7379  168.0286 C.ar    1  UNL1        0.0335
     22 C         140.2315  142.0214  166.7511 C.ar    1  UNL1        0.0736
     23 C         140.4687  142.6956  165.4323 C.3     1  UNL1        0.4186
     24 F         140.7061  143.3698  164.1135 F       1  UNL1       -0.1659
     25 F         139.1131  143.3324  165.5140 F       1  UNL1       -0.1659
     26 F         141.8244  142.0587  165.3507 F       1  UNL1       -0.1659
@<TRIPOS>BOND
     1     2     3    1
     2     3     1    1
     3     1    14    1
     4    14    15    2
     5    15    16    1
     6    16    17   ar
     7    17    18   ar
     8    18    19   ar
     9    19    20    1
    10    19    21   ar
    11    21    22   ar
    12    22    23    1
    13    23    24    1
    14    23    25    1
    15    23    26    1
    16     3     4    1
    17     4     5    1
    18     5     6   ar
    19     6     7   ar
    20     7     8   ar
    21     8     9   ar
    22     9    10   ar
    23     9    11    1
    24    11    12    1
    25    12    13    1
    26    22    16   ar
    27    10     5   ar
    28    13     8    1
@<TRIPOS>MOLECULE
*****
 26 28 0 0 0
SMALL
GASTEIGER

@<TRIPOS>ATOM
      1 C         138.0005  140.0861  165.0632 C.3     1  UNL1        0.0992
      2 C         137.6929  138.6200  167.1858 C.3     1  UNL1        0.0902
      3 N         138.1940  138.7836  165.7816 N.3     1  UNL1       -0.2639
      4 C         138.8887  137.6448  165.0956 C.3     1  UNL1        0.0995
      5 C         140.2217  137.8630  164.4432 C.ar    1  UNL1       -0.0029
      6 C         141.3904  138.3260  165.2615 C.ar    1  UNL1        0.0004
      7 C         142.7233  138.5442  164.6091 C.ar    1  UNL1        0.0399
      8 C         142.8876  138.2993  163.1384 C.ar    1  UNL1        0.1764
      9 C         141.7189  137.8363  162.3200 C.ar    1  UNL1        0.1762
     10 C         140.3859  137.6181  162.9724 C.ar    1  UNL1        0.0373
     11 O         142.1798  137.6785  160.9014 O.3     1  UNL1       -0.4346
     12 C         143.6334  138.0441  160.8429 C.3     1  UNL1        0.4294
     13 O         144.0708  138.4278  162.2255 O.3     1  UNL1       -0.4346
     14 C         139.0570  141.1483  165.1383 C.2     1  UNL1       -0.0088
     15 C         139.8122  141.5436  163.9041 C.2     1  UNL1       -0.0032
     16 C         140.8687  142.6057  163.9792 C.ar    1  UNL1        0.0038
     17 C         142.2734  142.2409  164.3579 C.ar    1  UNL1        0.0022
     18 C         143.3299  143.3031  164.4331 C.ar    1  UNL1        0.0296
     19 C         142.9816  144.7301  164.1295 C.ar    1  UNL1        0.1401
     20 F         144.0381  145.7923  164.2046 F       1  UNL1       -0.2042
     21 C         141.5769  145.0950  163.7508 C.ar    1  UNL1        0.0335
     22 C         140.5204  144.0329  163.6756 C.ar    1  UNL1        0.0736
     23 C         139.1156  144.3978  163.2969 C.3     1  UNL1        0.4186
     24 F         137.7108  144.7627  162.9181 F       1  UNL1       -0.1659
     25 F         138.8215  144.7482  164.7254 F       1  UNL1       -0.1659
     26 F         139.4098  144.0473  161.8683 F       1  UNL1       -0.1659
@<TRIPOS>BOND
     1     2     3    1
     2     3     1    1
     3     1    14    1
     4    14    15    2
     5    15    16    1
     6    16    17   ar
     7    17    18   ar
     8    18    19   ar
     9    19    20    1
    10    19    21   ar
    11    21    22   ar
    12    22    23    1
    13    23    24    1
    14    23    25    1
    15    23    26    1
    16     3     4    1
    17     4     5    1
    18     5     6   ar
    19     6     7   ar
    20     7     8   ar
    21     8     9   ar
    22     9    10   ar
    23     9    11    1
    24    11    12    1
    25    12    13    1
    26    22    16   ar
    27    10     5   ar
    28    13     8    1
@<TRIPOS>MOLECULE
*****
 26 28 0 0 0
SMALL
GASTEIGER

@<TRIPOS>ATOM
      1 C         138.6388  140.2030  165.2346 C.3     1  UNL1        0.0992
      2 C         138.8277  137.6126  165.2974 C.3     1  UNL1        0.0902
      3 N         139.1128  138.9198  164.6192 N.3     1  UNL1       -0.2639
      4 C         139.8718  138.9438  163.3256 C.3     1  UNL1        0.0995
      5 C         141.3095  139.3714  163.3074 C.ar    1  UNL1       -0.0029
      6 C         142.3755  138.4393  163.8020 C.ar    1  UNL1        0.0004
      7 C         143.8131  138.8668  163.7838 C.ar    1  UNL1        0.0399
      8 C         144.1847  140.2266  163.2710 C.ar    1  UNL1        0.1764
      9 C         143.1187  141.1588  162.7764 C.ar    1  UNL1        0.1762
     10 C         141.6811  140.7312  162.7946 C.ar    1  UNL1        0.0373
     11 O         143.7827  142.4282  162.3319 O.3     1  UNL1       -0.4346
     12 C         145.2591  142.2806  162.5519 C.3     1  UNL1        0.4294
     13 O         145.5076  140.9199  163.1322 O.3     1  UNL1       -0.4346
     14 C         139.5616  141.0027  166.1058 C.2     1  UNL1       -0.0088
     15 C         139.8897  140.5241  167.4890 C.2     1  UNL1       -0.0032
     16 C         140.8124  141.3238  168.3602 C.ar    1  UNL1        0.0038
     17 C         140.3073  142.5499  169.0612 C.ar    1  UNL1        0.0022
     18 C         141.2301  143.3496  169.9324 C.ar    1  UNL1        0.0296
     19 C         142.6580  142.9232  170.1026 C.ar    1  UNL1        0.1401
     20 F         143.5808  143.7229  170.9738 F       1  UNL1       -0.2042
     21 C         143.1633  141.6971  169.4017 C.ar    1  UNL1        0.0335
     22 C         142.2405  140.8974  168.5305 C.ar    1  UNL1        0.0736
     23 C         142.7457  139.6712  167.8296 C.3     1  UNL1        0.4186
     24 F         143.2509  138.4450  167.1287 F       1  UNL1       -0.1659
     25 F         142.9863  140.4795  166.5891 F       1  UNL1       -0.1659
     26 F         142.5051  138.8630  169.0701 F       1  UNL1       -0.1659
@<TRIPOS>BOND
     1     2     3    1
     2     3     1    1
     3     1    14    1
     4    14    15    2
     5    15    16    1
     6    16    17   ar
     7    17    18   ar
     8    18    19   ar
     9    19    20    1
    10    19    21   ar
    11    21    22   ar
    12    22    23    1
    13    23    24    1
    14    23    25    1
    15    23    26    1
    16     3     4    1
    17     4     5    1
    18     5     6   ar
    19     6     7   ar
    20     7     8   ar
    21     8     9   ar
    22     9    10   ar
    23     9    11    1
    24    11    12    1
    25    12    13    1
    26    22    16   ar
    27    10     5   ar
    28    13     8    1
