@<TRIPOS>MOLECULE
*****
 28 31 0 0 0
SMALL
GASTEIGER

@<TRIPOS>ATOM
      1 C         141.7224  142.7064  165.0974 C.ar    1  UNL1        0.1400
      2 N         140.6867  142.8731  166.1696 N.ar    1  UNL1       -0.2271
      3 C         140.9884  141.8907  167.2623 C.ar    1  UNL1        0.0983
      4 C         140.3082  141.6008  168.5673 C.ar    1  UNL1        0.0161
      5 C         140.8501  140.5371  169.4755 C.ar    1  UNL1       -0.0242
      6 C         140.1698  140.2471  170.7806 C.3     1  UNL1        0.0307
      7 C         142.0723  139.7633  169.0786 C.ar    1  UNL1       -0.0243
      8 C         142.6142  138.6995  169.9868 C.3     1  UNL1        0.0307
      9 C         142.7525  140.0532  167.7736 C.ar    1  UNL1        0.0142
     10 C         142.2106  141.1169  166.8654 C.ar    1  UNL1        0.0788
     11 N         142.6642  141.6211  165.5275 N.ar    1  UNL1       -0.3075
     12 C         142.4318  144.8494  163.8112 C.3     1  UNL1        0.0342
     13 C         141.8023  143.4880  163.8196 C.2     1  UNL1        0.0123
     14 C         141.2526  142.9081  162.5502 C.2     1  UNL1        0.0003
     15 C         141.3325  143.6896  161.2724 C.ar    1  UNL1        0.0190
     16 C         140.2471  144.6630  160.9195 C.ar    1  UNL1        0.0031
     17 C         140.3269  145.4446  159.6417 C.ar    1  UNL1        0.0207
     18 C         141.4922  145.2527  158.7167 C.ar    1  UNL1        0.0989
     19 N         142.5775  144.2793  159.0696 N.ar    1  UNL1       -0.2423
     20 C         142.4976  143.4977  160.3474 C.ar    1  UNL1        0.0988
     21 C         143.8513  141.1266  164.7552 C.3     1  UNL1        0.1342
     22 C         143.6575  140.1871  163.6022 C.ar    1  UNL1        0.0005
     23 C         142.7834  138.9781  163.7585 C.ar    1  UNL1       -0.0015
     24 C         142.5896  138.0384  162.6055 C.ar    1  UNL1        0.0111
     25 C         143.2700  138.3078  161.2960 C.ar    1  UNL1        0.0577
     26 CL        143.0762  137.3681  160.1430 Cl      1  UNL1       -0.0822
     27 C         144.1440  139.5167  161.1397 C.ar    1  UNL1        0.0111
     28 C         144.3378  140.4563  162.2927 C.ar    1  UNL1       -0.0015
@<TRIPOS>BOND
     1    12    13    1
     2    13    14    2
     3    14    15    1
     4    15    16   ar
     5    16    17   ar
     6    17    18   ar
     7    18    19   ar
     8    19    20   ar
     9    13     1    1
    10     1     2   ar
    11     2     3   ar
    12     3     4   ar
    13     4     5   ar
    14     5     6    1
    15     5     7   ar
    16     7     8    1
    17     7     9   ar
    18     9    10   ar
    19    10    11   ar
    20    11    21    1
    21    21    22    1
    22    22    23   ar
    23    23    24   ar
    24    24    25   ar
    25    25    26    1
    26    25    27   ar
    27    27    28   ar
    28    20    15   ar
    29    11     1   ar
    30    28    22   ar
    31    10     3   ar
@<TRIPOS>MOLECULE
*****
 28 31 0 0 0
SMALL
GASTEIGER

@<TRIPOS>ATOM
      1 C         141.2224  138.3249  162.4251 C.ar    1  UNL1        0.1400
      2 N         142.3921  138.0208  161.5366 N.ar    1  UNL1       -0.2271
      3 C         141.9295  138.1151  160.1128 C.ar    1  UNL1        0.0983
      4 C         142.6457  137.9178  158.8097 C.ar    1  UNL1        0.0161
      5 C         141.9062  138.0829  157.5151 C.ar    1  UNL1       -0.0242
      6 C         142.6224  137.8856  156.2119 C.3     1  UNL1        0.0307
      7 C         140.4507  138.4453  157.5237 C.ar    1  UNL1       -0.0243
      8 C         139.7113  138.6103  156.2290 C.3     1  UNL1        0.0307
      9 C         139.7346  138.6426  158.8268 C.ar    1  UNL1        0.0142
     10 C         140.4740  138.4775  160.1214 C.ar    1  UNL1        0.0788
     11 N         140.0370  138.6071  161.5504 N.ar    1  UNL1       -0.3075
     12 C         140.6734  137.1853  164.6944 C.3     1  UNL1        0.0342
     13 C         141.2359  138.3435  163.9249 C.2     1  UNL1        0.0123
     14 C         141.8118  139.5203  164.6553 C.2     1  UNL1        0.0003
     15 C         141.8253  139.5389  166.1551 C.ar    1  UNL1        0.0190
     16 C         140.6550  140.0981  166.9087 C.ar    1  UNL1        0.0031
     17 C         140.6685  140.1167  168.4086 C.ar    1  UNL1        0.0207
     18 C         141.8521  139.5761  169.1547 C.ar    1  UNL1        0.0989
     19 N         143.0223  139.0169  168.4011 N.ar    1  UNL1       -0.2423
     20 C         143.0089  138.9983  166.9013 C.ar    1  UNL1        0.0988
     21 C         138.6568  138.9575  162.0220 C.3     1  UNL1        0.1342
     22 C         138.3925  140.2999  162.6368 C.ar    1  UNL1        0.0005
     23 C         138.2934  140.4357  164.1274 C.ar    1  UNL1       -0.0015
     24 C         138.0291  141.7781  164.7423 C.ar    1  UNL1        0.0111
     25 C         137.8638  142.9847  163.8666 C.ar    1  UNL1        0.0577
     26 CL        137.5995  144.3271  164.4815 Cl      1  UNL1       -0.0822
     27 C         137.9629  142.8489  162.3761 C.ar    1  UNL1        0.0111
     28 C         138.2272  141.5065  161.7612 C.ar    1  UNL1       -0.0015
@<TRIPOS>BOND
     1    12    13    1
     2    13    14    2
     3    14    15    1
     4    15    16   ar
     5    16    17   ar
     6    17    18   ar
     7    18    19   ar
     8    19    20   ar
     9    13     1    1
    10     1     2   ar
    11     2     3   ar
    12     3     4   ar
    13     4     5   ar
    14     5     6    1
    15     5     7   ar
    16     7     8    1
    17     7     9   ar
    18     9    10   ar
    19    10    11   ar
    20    11    21    1
    21    21    22    1
    22    22    23   ar
    23    23    24   ar
    24    24    25   ar
    25    25    26    1
    26    25    27   ar
    27    27    28   ar
    28    20    15   ar
    29    11     1   ar
    30    28    22   ar
    31    10     3   ar
@<TRIPOS>MOLECULE
*****
 28 31 0 0 0
SMALL
GASTEIGER

@<TRIPOS>ATOM
      1 C         141.8921  142.3476  163.6378 C.ar    1  UNL1        0.1400
      2 N         141.9877  143.7623  163.1486 N.ar    1  UNL1       -0.2271
      3 C         141.3559  143.8265  161.7896 C.ar    1  UNL1        0.0983
      4 C         141.1605  144.9594  160.8261 C.ar    1  UNL1        0.0161
      5 C         140.4790  144.7173  159.5121 C.ar    1  UNL1       -0.0242
      6 C         140.2835  145.8502  158.5485 C.3     1  UNL1        0.0307
      7 C         139.9930  143.3422  159.1614 C.ar    1  UNL1       -0.0243
      8 C         139.3114  143.1001  157.8472 C.3     1  UNL1        0.0307
      9 C         140.1884  142.2093  160.1249 C.ar    1  UNL1        0.0142
     10 C         140.8699  142.4515  161.4389 C.ar    1  UNL1        0.0788
     11 N         141.2013  141.5374  162.5812 N.ar    1  UNL1       -0.3075
     12 C         143.7328  141.1524  165.0282 C.3     1  UNL1        0.0342
     13 C         142.3984  141.8333  164.9528 C.2     1  UNL1        0.0123
     14 C         141.5704  141.9999  166.1923 C.2     1  UNL1        0.0003
     15 C         142.0767  141.4857  167.5073 C.ar    1  UNL1        0.0190
     16 C         141.7161  140.1019  167.9605 C.ar    1  UNL1        0.0031
     17 C         142.2224  139.5876  169.2755 C.ar    1  UNL1        0.0207
     18 C         143.0893  140.4571  170.1373 C.ar    1  UNL1        0.0989
     19 N         143.4499  141.8407  169.6841 N.ar    1  UNL1       -0.2423
     20 C         142.9435  142.3550  168.3691 C.ar    1  UNL1        0.0988
     21 C         140.8955  140.0708  162.6541 C.3     1  UNL1        0.1342
     22 C         140.0258  139.5397  163.7547 C.ar    1  UNL1        0.0005
     23 C         140.2215  138.1394  164.2559 C.ar    1  UNL1       -0.0015
     24 C         139.3518  137.6083  165.3565 C.ar    1  UNL1        0.0111
     25 C         138.2863  138.4774  165.9560 C.ar    1  UNL1        0.0577
     26 CL        137.4165  137.9462  167.0567 Cl      1  UNL1       -0.0822
     27 C         138.0905  139.8775  165.4548 C.ar    1  UNL1        0.0111
     28 C         138.9602  140.4087  164.3542 C.ar    1  UNL1       -0.0015
@<TRIPOS>BOND
     1    12    13    1
     2    13    14    2
     3    14    15    1
     4    15    16   ar
     5    16    17   ar
     6    17    18   ar
     7    18    19   ar
     8    19    20   ar
     9    13     1    1
    10     1     2   ar
    11     2     3   ar
    12     3     4   ar
    13     4     5   ar
    14     5     6    1
    15     5     7   ar
    16     7     8    1
    17     7     9   ar
    18     9    10   ar
    19    10    11   ar
    20    11    21    1
    21    21    22    1
    22    22    23   ar
    23    23    24   ar
    24    24    25   ar
    25    25    26    1
    26    25    27   ar
    27    27    28   ar
    28    20    15   ar
    29    11     1   ar
    30    28    22   ar
    31    10     3   ar
@<TRIPOS>MOLECULE
*****
 28 31 0 0 0
SMALL
GASTEIGER

@<TRIPOS>ATOM
      1 C         142.5258  141.5358  164.3329 C.ar    1  UNL1        0.1400
      2 N         143.8621  141.7139  163.6751 N.ar    1  UNL1       -0.2271
      3 C         143.6324  141.9195  162.2071 C.ar    1  UNL1        0.0983
      4 C         144.5782  142.1465  161.0653 C.ar    1  UNL1        0.0161
      5 C         144.0459  142.3226  159.6741 C.ar    1  UNL1       -0.0242
      6 C         144.9918  142.5496  158.5322 C.3     1  UNL1        0.0307
      7 C         142.5676  142.2716  159.4247 C.ar    1  UNL1       -0.0243
      8 C         142.0353  142.4477  158.0333 C.3     1  UNL1        0.0307
      9 C         141.6218  142.0446  160.5664 C.ar    1  UNL1        0.0142
     10 C         142.1541  141.8685  161.9577 C.ar    1  UNL1        0.0788
     11 N         141.4703  141.6314  163.2715 N.ar    1  UNL1       -0.3075
     12 C         142.5586  139.9550  166.3944 C.3     1  UNL1        0.0342
     13 C         142.2871  141.3031  165.7954 C.2     1  UNL1        0.0123
     14 C         141.7768  142.4184  166.6588 C.2     1  UNL1        0.0003
     15 C         141.5380  142.1857  168.1213 C.ar    1  UNL1        0.0190
     16 C         140.1900  141.7322  168.5983 C.ar    1  UNL1        0.0031
     17 C         139.9513  141.4995  170.0608 C.ar    1  UNL1        0.0207
     18 C         141.0605  141.7202  171.0462 C.ar    1  UNL1        0.0989
     19 N         142.4084  142.1736  170.5692 N.ar    1  UNL1       -0.2423
     20 C         142.6471  142.4063  169.1067 C.ar    1  UNL1        0.0988
     21 C         139.9906  141.5110  163.4862 C.3     1  UNL1        0.1342
     22 C         139.4376  140.3564  164.2678 C.ar    1  UNL1        0.0005
     23 C         138.6107  140.6081  165.4938 C.ar    1  UNL1       -0.0015
     24 C         138.0576  139.4535  166.2755 C.ar    1  UNL1        0.0111
     25 C         138.3315  138.0472  165.8312 C.ar    1  UNL1        0.0577
     26 CL        137.7784  136.8926  166.6129 Cl      1  UNL1       -0.0822
     27 C         139.1583  137.7956  164.6053 C.ar    1  UNL1        0.0111
     28 C         139.7113  138.9501  163.8235 C.ar    1  UNL1       -0.0015
@<TRIPOS>BOND
     1    12    13    1
     2    13    14    2
     3    14    15    1
     4    15    16   ar
     5    16    17   ar
     6    17    18   ar
     7    18    19   ar
     8    19    20   ar
     9    13     1    1
    10     1     2   ar
    11     2     3   ar
    12     3     4   ar
    13     4     5   ar
    14     5     6    1
    15     5     7   ar
    16     7     8    1
    17     7     9   ar
    18     9    10   ar
    19    10    11   ar
    20    11    21    1
    21    21    22    1
    22    22    23   ar
    23    23    24   ar
    24    24    25   ar
    25    25    26    1
    26    25    27   ar
    27    27    28   ar
    28    20    15   ar
    29    11     1   ar
    30    28    22   ar
    31    10     3   ar
@<TRIPOS>MOLECULE
*****
 28 31 0 0 0
SMALL
GASTEIGER

@<TRIPOS>ATOM
      1 C         140.6351  139.3609  164.8089 C.ar    1  UNL1        0.1400
      2 N         141.7573  138.8141  165.6405 N.ar    1  UNL1       -0.2271
      3 C         141.6994  139.4718  166.9874 C.ar    1  UNL1        0.0983
      4 C         142.5515  139.3258  168.2132 C.ar    1  UNL1        0.0161
      5 C         142.2456  140.1332  169.4397 C.ar    1  UNL1       -0.0242
      6 C         143.0978  139.9872  170.6656 C.3     1  UNL1        0.0307
      7 C         141.0876  141.0866  169.4405 C.ar    1  UNL1       -0.0243
      8 C         140.7818  141.8941  170.6671 C.3     1  UNL1        0.0307
      9 C         140.2355  141.2327  168.2147 C.ar    1  UNL1        0.0142
     10 C         140.5414  140.4253  166.9882 C.ar    1  UNL1        0.0788
     11 N         139.8837  140.3567  165.6418 N.ar    1  UNL1       -0.3075
     12 C         139.6468  137.6707  163.1012 C.3     1  UNL1        0.0342
     13 C         140.3198  138.9791  163.3930 C.2     1  UNL1        0.0123
     14 C         140.6774  139.9056  162.2689 C.2     1  UNL1        0.0003
     15 C         140.3621  139.5237  160.8531 C.ar    1  UNL1        0.0190
     16 C         141.3868  138.8087  160.0231 C.ar    1  UNL1        0.0031
     17 C         141.0714  138.4268  158.6072 C.ar    1  UNL1        0.0207
     18 C         139.7313  138.7600  158.0213 C.ar    1  UNL1        0.0989
     19 N         138.7067  139.4750  158.8512 N.ar    1  UNL1       -0.2423
     20 C         139.0221  139.8568  160.2671 C.ar    1  UNL1        0.0988
     21 C         138.6849  141.1455  165.2050 C.3     1  UNL1        0.1342
     22 C         138.8642  142.3999  164.4025 C.ar    1  UNL1        0.0005
     23 C         138.2006  142.5353  163.0640 C.ar    1  UNL1       -0.0015
     24 C         138.3799  143.7897  162.2614 C.ar    1  UNL1        0.0111
     25 C         139.2227  144.9089  162.7973 C.ar    1  UNL1        0.0577
     26 CL        139.4020  146.1634  161.9947 Cl      1  UNL1       -0.0822
     27 C         139.8863  144.7735  164.1357 C.ar    1  UNL1        0.0111
     28 C         139.7070  143.5191  164.9383 C.ar    1  UNL1       -0.0015
@<TRIPOS>BOND
     1    12    13    1
     2    13    14    2
     3    14    15    1
     4    15    16   ar
     5    16    17   ar
     6    17    18   ar
     7    18    19   ar
     8    19    20   ar
     9    13     1    1
    10     1     2   ar
    11     2     3   ar
    12     3     4   ar
    13     4     5   ar
    14     5     6    1
    15     5     7   ar
    16     7     8    1
    17     7     9   ar
    18     9    10   ar
    19    10    11   ar
    20    11    21    1
    21    21    22    1
    22    22    23   ar
    23    23    24   ar
    24    24    25   ar
    25    25    26    1
    26    25    27   ar
    27    27    28   ar
    28    20    15   ar
    29    11     1   ar
    30    28    22   ar
    31    10     3   ar
@<TRIPOS>MOLECULE
*****
 28 31 0 0 0
SMALL
GASTEIGER

@<TRIPOS>ATOM
      1 C         140.3174  142.7778  163.1619 C.ar    1  UNL1        0.1400
      2 N         140.3634  144.1785  162.6272 N.ar    1  UNL1       -0.2271
      3 C         140.8434  144.1171  161.2074 C.ar    1  UNL1        0.0983
      4 C         141.0846  145.1854  160.1824 C.ar    1  UNL1        0.0161
      5 C         141.5765  144.8149  158.8146 C.ar    1  UNL1       -0.0242
      6 C         141.8177  145.8832  157.7895 C.3     1  UNL1        0.0307
      7 C         141.8271  143.3763  158.4719 C.ar    1  UNL1       -0.0243
      8 C         142.3190  143.0059  157.1040 C.3     1  UNL1        0.0307
      9 C         141.5859  142.3081  159.4968 C.ar    1  UNL1        0.0142
     10 C         141.0941  142.6785  160.8646 C.ar    1  UNL1        0.0788
     11 N         140.7690  141.8508  162.0726 N.ar    1  UNL1       -0.3075
     12 C         138.4587  142.0392  164.8201 C.3     1  UNL1        0.0342
     13 C         139.8942  142.3749  164.5435 C.2     1  UNL1        0.0123
     14 C         140.9065  142.3078  165.6483 C.2     1  UNL1        0.0003
     15 C         140.4832  141.9049  167.0298 C.ar    1  UNL1        0.0190
     16 C         140.0326  140.4991  167.2961 C.ar    1  UNL1        0.0031
     17 C         139.6094  140.0962  168.6776 C.ar    1  UNL1        0.0207
     18 C         139.6368  141.0991  169.7928 C.ar    1  UNL1        0.0989
     19 N         140.0874  142.5048  169.5265 N.ar    1  UNL1       -0.2423
     20 C         140.5106  142.9077  168.1450 C.ar    1  UNL1        0.0988
     21 C         140.8766  140.3580  162.1735 C.3     1  UNL1        0.1342
     22 C         141.6678  139.7366  163.2859 C.ar    1  UNL1        0.0005
     23 C         143.0693  140.1972  163.5578 C.ar    1  UNL1       -0.0015
     24 C         143.8606  139.5758  164.6702 C.ar    1  UNL1        0.0111
     25 C         143.2505  138.4936  165.5109 C.ar    1  UNL1        0.0577
     26 CL        144.0418  137.8721  166.6233 Cl      1  UNL1       -0.0822
     27 C         141.8491  138.0329  165.2391 C.ar    1  UNL1        0.0111
     28 C         141.0578  138.6544  164.1266 C.ar    1  UNL1       -0.0015
@<TRIPOS>BOND
     1    12    13    1
     2    13    14    2
     3    14    15    1
     4    15    16   ar
     5    16    17   ar
     6    17    18   ar
     7    18    19   ar
     8    19    20   ar
     9    13     1    1
    10     1     2   ar
    11     2     3   ar
    12     3     4   ar
    13     4     5   ar
    14     5     6    1
    15     5     7   ar
    16     7     8    1
    17     7     9   ar
    18     9    10   ar
    19    10    11   ar
    20    11    21    1
    21    21    22    1
    22    22    23   ar
    23    23    24   ar
    24    24    25   ar
    25    25    26    1
    26    25    27   ar
    27    27    28   ar
    28    20    15   ar
    29    11     1   ar
    30    28    22   ar
    31    10     3   ar
@<TRIPOS>MOLECULE
*****
 28 31 0 0 0
SMALL
GASTEIGER

@<TRIPOS>ATOM
      1 C         141.1985  140.5465  164.5696 C.ar    1  UNL1        0.1400
      2 N         140.8202  139.7211  165.7636 N.ar    1  UNL1       -0.2271
      3 C         141.5465  140.2701  166.9556 C.ar    1  UNL1        0.0983
      4 C         141.5615  139.8599  168.3983 C.ar    1  UNL1        0.0161
      5 C         142.4038  140.6144  169.3838 C.ar    1  UNL1       -0.0242
      6 C         142.4189  140.2042  170.8266 C.3     1  UNL1        0.0307
      7 C         143.2311  141.7791  168.9266 C.ar    1  UNL1       -0.0243
      8 C         144.0735  142.5336  169.9121 C.3     1  UNL1        0.0307
      9 C         143.2161  142.1893  167.4839 C.ar    1  UNL1        0.0142
     10 C         142.3738  141.4347  166.4984 C.ar    1  UNL1        0.0788
     11 N         142.1587  141.6056  165.0237 N.ar    1  UNL1       -0.3075
     12 C         141.3399  139.3134  162.2872 C.3     1  UNL1        0.0342
     13 C         140.7035  140.3477  163.1676 C.2     1  UNL1        0.0123
     14 C         139.5722  141.1832  162.6461 C.2     1  UNL1        0.0003
     15 C         139.0772  140.9844  161.2442 C.ar    1  UNL1        0.0190
     16 C         139.7188  141.7272  160.1099 C.ar    1  UNL1        0.0031
     17 C         139.2239  141.5284  158.7079 C.ar    1  UNL1        0.0207
     18 C         138.0872  140.5868  158.4403 C.ar    1  UNL1        0.0989
     19 N         137.4456  139.8440  159.5746 N.ar    1  UNL1       -0.2423
     20 C         137.9406  140.0428  160.9765 C.ar    1  UNL1        0.0988
     21 C         142.7926  142.6518  164.1557 C.3     1  UNL1        0.1342
     22 C         141.9341  143.6426  163.4269 C.ar    1  UNL1        0.0005
     23 C         140.8271  144.3509  164.1501 C.ar    1  UNL1       -0.0015
     24 C         139.9685  145.3417  163.4213 C.ar    1  UNL1        0.0111
     25 C         140.2169  145.6242  161.9692 C.ar    1  UNL1        0.0577
     26 CL        139.3583  146.6150  161.2404 Cl      1  UNL1       -0.0822
     27 C         141.3239  144.9160  161.2460 C.ar    1  UNL1        0.0111
     28 C         142.1824  143.9252  161.9748 C.ar    1  UNL1       -0.0015
@<TRIPOS>BOND
     1    12    13    1
     2    13    14    2
     3    14    15    1
     4    15    16   ar
     5    16    17   ar
     6    17    18   ar
     7    18    19   ar
     8    19    20   ar
     9    13     1    1
    10     1     2   ar
    11     2     3   ar
    12     3     4   ar
    13     4     5   ar
    14     5     6    1
    15     5     7   ar
    16     7     8    1
    17     7     9   ar
    18     9    10   ar
    19    10    11   ar
    20    11    21    1
    21    21    22    1
    22    22    23   ar
    23    23    24   ar
    24    24    25   ar
    25    25    26    1
    26    25    27   ar
    27    27    28   ar
    28    20    15   ar
    29    11     1   ar
    30    28    22   ar
    31    10     3   ar
@<TRIPOS>MOLECULE
*****
 28 31 0 0 0
SMALL
GASTEIGER

@<TRIPOS>ATOM
      1 C         140.2910  139.3869  164.5519 C.ar    1  UNL1        0.1400
      2 N         139.2906  139.6680  165.6337 N.ar    1  UNL1       -0.2271
      3 C         140.0279  139.7479  166.9375 C.ar    1  UNL1        0.0983
      4 C         139.5615  140.0017  168.3404 C.ar    1  UNL1        0.0161
      5 C         140.5512  140.0238  169.4673 C.ar    1  UNL1       -0.0242
      6 C         140.0848  140.2776  170.8702 C.3     1  UNL1        0.0307
      7 C         142.0072  139.7920  169.1914 C.ar    1  UNL1       -0.0243
      8 C         142.9969  139.8141  170.3184 C.3     1  UNL1        0.0307
      9 C         142.4736  139.5382  167.7885 C.ar    1  UNL1        0.0142
     10 C         141.4840  139.5161  166.6616 C.ar    1  UNL1        0.0788
     11 N         141.6465  139.2930  165.1872 N.ar    1  UNL1       -0.3075
     12 C         139.7672  137.8602  162.5161 C.3     1  UNL1        0.0342
     13 C         139.9889  139.2276  163.0913 C.2     1  UNL1        0.0123
     14 C         139.9084  140.4358  162.2060 C.2     1  UNL1        0.0003
     15 C         139.6063  140.2765  160.7454 C.ar    1  UNL1        0.0190
     16 C         140.7277  140.1590  159.7560 C.ar    1  UNL1        0.0031
     17 C         140.4255  139.9997  158.2954 C.ar    1  UNL1        0.0207
     18 C         139.0020  139.9579  157.8242 C.ar    1  UNL1        0.0989
     19 N         137.8807  140.0754  158.8135 N.ar    1  UNL1       -0.2423
     20 C         138.1829  140.2347  160.2741 C.ar    1  UNL1        0.0988
     21 C         142.9380  139.0234  164.4735 C.3     1  UNL1        0.1342
     22 C         143.3316  139.8607  163.2929 C.ar    1  UNL1        0.0005
     23 C         143.3121  141.3572  163.3949 C.ar    1  UNL1       -0.0015
     24 C         143.7056  142.1946  162.2143 C.ar    1  UNL1        0.0111
     25 C         144.1187  141.5356  160.9317 C.ar    1  UNL1        0.0577
     26 CL        144.5122  142.3731  159.7511 Cl      1  UNL1       -0.0822
     27 C         144.1381  140.0392  160.8297 C.ar    1  UNL1        0.0111
     28 C         143.7446  139.2018  162.0103 C.ar    1  UNL1       -0.0015
@<TRIPOS>BOND
     1    12    13    1
     2    13    14    2
     3    14    15    1
     4    15    16   ar
     5    16    17   ar
     6    17    18   ar
     7    18    19   ar
     8    19    20   ar
     9    13     1    1
    10     1     2   ar
    11     2     3   ar
    12     3     4   ar
    13     4     5   ar
    14     5     6    1
    15     5     7   ar
    16     7     8    1
    17     7     9   ar
    18     9    10   ar
    19    10    11   ar
    20    11    21    1
    21    21    22    1
    22    22    23   ar
    23    23    24   ar
    24    24    25   ar
    25    25    26    1
    26    25    27   ar
    27    27    28   ar
    28    20    15   ar
    29    11     1   ar
    30    28    22   ar
    31    10     3   ar
@<TRIPOS>MOLECULE
*****
 28 31 0 0 0
SMALL
GASTEIGER

@<TRIPOS>ATOM
      1 C         140.4568  142.1753  164.5472 C.ar    1  UNL1        0.1400
      2 N         140.7420  143.1750  165.6286 N.ar    1  UNL1       -0.2271
      3 C         140.4174  142.5372  166.9469 C.ar    1  UNL1        0.0983
      4 C         140.5014  143.0456  168.3556 C.ar    1  UNL1        0.0161
      5 C         140.0996  142.1600  169.4976 C.ar    1  UNL1       -0.0242
      6 C         140.1836  142.6684  170.9064 C.3     1  UNL1        0.0307
      7 C         139.6139  140.7661  169.2310 C.ar    1  UNL1       -0.0243
      8 C         139.2121  139.8806  170.3732 C.3     1  UNL1        0.0307
      9 C         139.5299  140.2578  167.8223 C.ar    1  UNL1        0.0142
     10 C         139.9316  141.1433  166.6803 C.ar    1  UNL1        0.0788
     11 N         139.9560  140.9197  165.1972 N.ar    1  UNL1       -0.3075
     12 C         139.4507  142.6670  162.2029 C.3     1  UNL1        0.0342
     13 C         140.6403  142.3931  163.0745 C.2     1  UNL1        0.0123
     14 C         142.0134  142.3369  162.4734 C.2     1  UNL1        0.0003
     15 C         142.1969  142.5547  161.0006 C.ar    1  UNL1        0.0190
     16 C         142.2575  141.3794  160.0705 C.ar    1  UNL1        0.0031
     17 C         142.4410  141.5971  158.5978 C.ar    1  UNL1        0.0207
     18 C         142.5638  142.9902  158.0552 C.ar    1  UNL1        0.0989
     19 N         142.5031  144.1654  158.9853 N.ar    1  UNL1       -0.2423
     20 C         142.3197  143.9477  160.4580 C.ar    1  UNL1        0.0988
     21 C         139.5507  139.6613  164.4886 C.3     1  UNL1        0.1342
     22 C         140.4360  139.0804  163.4262 C.ar    1  UNL1        0.0005
     23 C         139.8863  138.8099  162.0570 C.ar    1  UNL1       -0.0015
     24 C         140.7715  138.2290  160.9945 C.ar    1  UNL1        0.0111
     25 C         142.2066  137.9184  161.3013 C.ar    1  UNL1        0.0577
     26 CL        143.0919  137.3375  160.2389 Cl      1  UNL1       -0.0822
     27 C         142.7564  138.1888  162.6705 C.ar    1  UNL1        0.0111
     28 C         141.8711  138.7698  163.7329 C.ar    1  UNL1       -0.0015
@<TRIPOS>BOND
     1    12    13    1
     2    13    14    2
     3    14    15    1
     4    15    16   ar
     5    16    17   ar
     6    17    18   ar
     7    18    19   ar
     8    19    20   ar
     9    13     1    1
    10     1     2   ar
    11     2     3   ar
    12     3     4   ar
    13     4     5   ar
    14     5     6    1
    15     5     7   ar
    16     7     8    1
    17     7     9   ar
    18     9    10   ar
    19    10    11   ar
    20    11    21    1
    21    21    22    1
    22    22    23   ar
    23    23    24   ar
    24    24    25   ar
    25    25    26    1
    26    25    27   ar
    27    27    28   ar
    28    20    15   ar
    29    11     1   ar
    30    28    22   ar
    31    10     3   ar
