@<TRIPOS>MOLECULE
*****
 45 51 0 0 0
SMALL
GASTEIGER

@<TRIPOS>ATOM
      1 C         137.8533  143.0724  162.9510 C.3     1  UNL1        0.0932
      2 C         137.6082  141.8069  163.7180 C.3     1  UNL1        0.0286
      3 C         137.6852  140.4807  163.0213 C.3     1  UNL1        0.0193
      4 C         138.0073  140.4201  161.5576 C.3     1  UNL1        0.0700
      5 C         138.2525  141.6857  160.7905 C.3     1  UNL1        0.0193
      6 C         138.1755  143.0118  161.4873 C.3     1  UNL1        0.0286
      7 C         137.9761  141.1701  161.8959 C.3     1  UNL1        0.1562
      8 O         137.9065  142.3692  162.5260 O.3     1  UNL1       -0.3572
      9 N         138.0843  139.0940  160.8608 N.3     1  UNL1       -0.2926
     10 H         137.5745  139.1926  159.9829 H       1  UNL1        0.1236
     11 C         139.4199  138.5014  160.5218 C.3     1  UNL1        0.1152
     12 C         140.5373  138.5495  161.5214 C.ar    1  UNL1        0.0765
     13 C         140.5531  137.5913  162.6753 C.ar    1  UNL1        0.0193
     14 C         141.6705  137.6394  163.6749 C.ar    1  UNL1        0.0411
     15 C         142.7721  138.6457  163.5204 C.ar    1  UNL1        0.1708
     16 C         142.7563  139.6038  162.3665 C.ar    1  UNL1        0.1682
     17 N         141.6389  139.5558  161.3669 N.ar    1  UNL1       -0.2304
     18 N         143.8580  140.6101  162.2121 N.am    1  UNL1       -0.2639
     19 C         144.9753  140.6582  163.2116 C.2     1  UNL1        0.2718
     20 O         146.0770  141.6645  163.0572 O.2     1  UNL1       -0.2707
     21 C         144.9911  139.7000  164.3656 C.3     1  UNL1        0.2898
     22 O         143.8895  138.6938  164.5200 O.3     1  UNL1       -0.4628
     23 H         143.8476  141.2390  161.4547 H       1  UNL1        0.1565
     24 C         137.7763  144.3986  163.6477 C.3     1  UNL1        0.0320
     25 C         138.8539  144.8044  164.6091 C.3     1  UNL1        0.0327
     26 C         140.7348  141.9199  167.5060 C.ar    1  UNL1        0.2250
     27 C         142.1447  141.4547  167.2924 C.ar    1  UNL1        0.0593
     28 C         142.9276  141.9509  166.1131 C.ar    1  UNL1        0.0254
     29 C         142.3006  142.9123  165.1474 C.ar    1  UNL1        0.0990
     30 N         143.0836  143.4085  163.9681 N.ar    1  UNL1       -0.2400
     31 C         142.4566  144.3700  163.0024 C.ar    1  UNL1        0.1281
     32 C         141.0467  144.8353  163.2161 C.ar    1  UNL1        0.1566
     33 F         140.4197  145.7968  162.2505 F       1  UNL1       -0.2028
     34 C         140.2638  144.3391  164.3954 C.ar    1  UNL1        0.0261
     35 C         140.8908  143.3776  165.3611 C.ar    1  UNL1        0.1002
     36 N         140.1078  142.8814  166.5404 N.ar    1  UNL1       -0.2104
     37 O         139.9518  141.4237  168.6854 O.3     1  UNL1       -0.4575
     38 C         139.3634  140.0441  168.6682 C.3     1  UNL1        0.2378
     39 N         136.7905  137.7364  167.5873 N.3     1  UNL1       -0.3181
     40 C         137.9285  138.4465  166.9159 C.3     1  UNL1        0.1121
     41 C         138.4721  138.4947  165.5187 C.3     1  UNL1        0.1602
     42 O         139.5378  139.4506  165.9665 O.3     1  UNL1       -0.3495
     43 C         138.9942  139.4023  167.3636 C.3     1  UNL1        0.1753
     44 H         136.2958  137.1640  166.9031 H       1  UNL1        0.1190
     45 H         136.1485  138.4225  167.9844 H       1  UNL1        0.1190
@<TRIPOS>BOND
     1    40    39    1
     2    40    41    1
     3    41    42    1
     4    42    43    1
     5    43    38    1
     6    38    37    1
     7    37    26    1
     8    26    27   ar
     9    27    28   ar
    10    28    29   ar
    11    29    30   ar
    12    30    31   ar
    13    31    32   ar
    14    32    33    1
    15    32    34   ar
    16    34    25    1
    17    25    24    1
    18    24     1    1
    19     1     2    1
    20     2     3    1
    21     3     4    1
    22     4     9    1
    23     9    11    1
    24    11    12    1
    25    12    13   ar
    26    13    14   ar
    27    14    15   ar
    28    15    16   ar
    29    16    17   ar
    30    16    18    1
    31    18    19   am
    32    19    20    2
    33    19    21    1
    34    21    22    1
    35     4     5    1
    36     5     6    1
    37     4     7    1
    38     7     8    1
    39    34    35   ar
    40    35    36   ar
    41    43    40    1
    42    36    26   ar
    43    35    29   ar
    44     6     1    1
    45     8     1    1
    46    17    12   ar
    47    22    15    1
    48    39    44    1
    49    39    45    1
    50     9    10    1
    51    18    23    1
@<TRIPOS>MOLECULE
*****
 45 51 0 0 0
SMALL
GASTEIGER

@<TRIPOS>ATOM
      1 C         141.9821  138.0681  164.0784 C.3     1  UNL1        0.0932
      2 C         142.2417  138.4076  162.6406 C.3     1  UNL1        0.0286
      3 C         143.4420  139.2267  162.2683 C.3     1  UNL1        0.0193
      4 C         144.3826  139.7062  163.3338 C.3     1  UNL1        0.0700
      5 C         144.1229  139.3666  164.7717 C.3     1  UNL1        0.0193
      6 C         142.9227  138.5476  165.1439 C.3     1  UNL1        0.0286
      7 C         143.7382  139.2601  163.5865 C.3     1  UNL1        0.1562
      8 O         142.6529  138.5196  163.9231 O.3     1  UNL1       -0.3572
      9 N         145.5828  140.5252  162.9616 N.3     1  UNL1       -0.2926
     10 H         145.6469  140.5078  161.9437 H       1  UNL1        0.1236
     11 C         145.6667  141.9642  163.3763 C.3     1  UNL1        0.1152
     12 C         144.4666  142.8543  163.2433 C.ar    1  UNL1        0.0765
     13 C         143.8427  143.4596  164.4657 C.ar    1  UNL1        0.0193
     14 C         142.6427  144.3496  164.3327 C.ar    1  UNL1        0.0411
     15 C         142.0666  144.6344  162.9774 C.ar    1  UNL1        0.1708
     16 C         142.6906  144.0291  161.7550 C.ar    1  UNL1        0.1682
     17 N         143.8906  143.1391  161.8879 N.ar    1  UNL1       -0.2304
     18 N         142.1145  144.3139  160.3995 N.am    1  UNL1       -0.2639
     19 C         140.9145  145.2040  160.2666 C.2     1  UNL1        0.2718
     20 O         140.3384  145.4888  158.9112 O.2     1  UNL1       -0.2707
     21 C         140.2905  145.8093  161.4890 C.3     1  UNL1        0.2898
     22 O         140.8665  145.5245  162.8444 O.3     1  UNL1       -0.4628
     23 H         142.5240  143.9167  159.5972 H       1  UNL1        0.1565
     24 C         140.7818  137.2491  164.4508 C.3     1  UNL1        0.0320
     25 C         139.5319  137.9254  164.9309 C.3     1  UNL1        0.0327
     26 C         140.2863  141.9868  166.7158 C.ar    1  UNL1        0.2250
     27 C         139.7843  143.2170  166.0197 C.ar    1  UNL1        0.0593
     28 C         139.0310  143.0934  164.7285 C.ar    1  UNL1        0.0254
     29 C         138.7796  141.7396  164.1335 C.ar    1  UNL1        0.0990
     30 N         138.0262  141.6160  162.8423 N.ar    1  UNL1       -0.2400
     31 C         137.7747  140.2622  162.2473 C.ar    1  UNL1        0.1281
     32 C         138.2767  139.0319  162.9436 C.ar    1  UNL1        0.1566
     33 F         138.0253  137.6781  162.3486 F       1  UNL1       -0.2028
     34 C         139.0300  139.1556  164.2347 C.ar    1  UNL1        0.0261
     35 C         139.2815  140.5094  164.8297 C.ar    1  UNL1        0.1002
     36 N         140.0348  140.6330  166.1209 N.ar    1  UNL1       -0.2104
     37 O         141.0396  142.1104  168.0071 O.3     1  UNL1       -0.4575
     38 C         142.4065  141.5067  168.1387 C.3     1  UNL1        0.2378
     39 N         142.1482  140.7400  171.6684 N.3     1  UNL1       -0.3181
     40 C         142.4991  139.9596  170.4365 C.3     1  UNL1        0.1121
     41 C         142.8883  138.5383  170.1563 C.3     1  UNL1        0.1602
     42 O         142.9953  138.8560  168.6942 O.3     1  UNL1       -0.3495
     43 C         142.6060  140.2771  168.9744 C.3     1  UNL1        0.1753
     44 H         142.1966  140.1287  172.4835 H       1  UNL1        0.1190
     45 H         141.2026  141.1115  171.5778 H       1  UNL1        0.1190
@<TRIPOS>BOND
     1    40    39    1
     2    40    41    1
     3    41    42    1
     4    42    43    1
     5    43    38    1
     6    38    37    1
     7    37    26    1
     8    26    27   ar
     9    27    28   ar
    10    28    29   ar
    11    29    30   ar
    12    30    31   ar
    13    31    32   ar
    14    32    33    1
    15    32    34   ar
    16    34    25    1
    17    25    24    1
    18    24     1    1
    19     1     2    1
    20     2     3    1
    21     3     4    1
    22     4     9    1
    23     9    11    1
    24    11    12    1
    25    12    13   ar
    26    13    14   ar
    27    14    15   ar
    28    15    16   ar
    29    16    17   ar
    30    16    18    1
    31    18    19   am
    32    19    20    2
    33    19    21    1
    34    21    22    1
    35     4     5    1
    36     5     6    1
    37     4     7    1
    38     7     8    1
    39    34    35   ar
    40    35    36   ar
    41    43    40    1
    42    36    26   ar
    43    35    29   ar
    44     6     1    1
    45     8     1    1
    46    17    12   ar
    47    22    15    1
    48    39    44    1
    49    39    45    1
    50     9    10    1
    51    18    23    1
@<TRIPOS>MOLECULE
*****
 45 51 0 0 0
SMALL
GASTEIGER

@<TRIPOS>ATOM
      1 C         137.8588  142.9708  162.9381 C.3     1  UNL1        0.0932
      2 C         137.6496  141.8398  163.9008 C.3     1  UNL1        0.0286
      3 C         137.6459  140.4239  163.4052 C.3     1  UNL1        0.0193
      4 C         137.8515  140.1393  161.9469 C.3     1  UNL1        0.0700
      5 C         138.0607  141.2704  160.9842 C.3     1  UNL1        0.0193
      6 C         138.0644  142.6861  161.4797 C.3     1  UNL1        0.0286
      7 C         137.8615  140.9314  162.1714 C.3     1  UNL1        0.1562
      8 O         137.8649  142.2116  162.6195 O.3     1  UNL1       -0.3572
      9 N         137.8478  138.7235  161.4513 N.3     1  UNL1       -0.2926
     10 H         137.2757  138.7086  160.6070 H       1  UNL1        0.1236
     11 C         139.1413  138.0451  161.1100 C.3     1  UNL1        0.1152
     12 C         140.3401  138.2282  161.9929 C.ar    1  UNL1        0.0765
     13 C         140.4898  137.4011  163.2353 C.ar    1  UNL1        0.0193
     14 C         141.6885  137.5842  164.1181 C.ar    1  UNL1        0.0411
     15 C         142.7375  138.5943  163.7586 C.ar    1  UNL1        0.1708
     16 C         142.5878  139.4213  162.5162 C.ar    1  UNL1        0.1682
     17 N         141.3891  139.2383  161.6333 N.ar    1  UNL1       -0.2304
     18 N         143.6369  140.4314  162.1567 N.am    1  UNL1       -0.2639
     19 C         144.8356  140.6145  163.0396 C.2     1  UNL1        0.2718
     20 O         145.8846  141.6246  162.6801 O.2     1  UNL1       -0.2707
     21 C         144.9853  139.7874  164.2820 C.3     1  UNL1        0.2898
     22 O         143.9363  138.7774  164.6415 O.3     1  UNL1       -0.4628
     23 H         143.5386  140.9743  161.3413 H       1  UNL1        0.1565
     24 C         137.8625  144.3866  163.4336 C.3     1  UNL1        0.0320
     25 C         138.8574  144.8155  164.4711 C.3     1  UNL1        0.0327
     26 C         140.6703  141.6582  167.1158 C.ar    1  UNL1        0.2250
     27 C         142.1171  141.2927  166.9639 C.ar    1  UNL1        0.0593
     28 C         142.9596  141.9797  165.9303 C.ar    1  UNL1        0.0254
     29 C         142.3553  143.0322  165.0488 C.ar    1  UNL1        0.0990
     30 N         143.1979  143.7191  164.0152 N.ar    1  UNL1       -0.2400
     31 C         142.5936  144.7716  163.1336 C.ar    1  UNL1        0.1281
     32 C         141.1467  145.1370  163.2856 C.ar    1  UNL1        0.1566
     33 F         140.5423  146.1895  162.4041 F       1  UNL1       -0.2028
     34 C         140.3042  144.4501  164.3191 C.ar    1  UNL1        0.0261
     35 C         140.9085  143.3976  165.2007 C.ar    1  UNL1        0.1002
     36 N         140.0660  142.7106  166.2342 N.ar    1  UNL1       -0.2104
     37 O         139.8278  140.9712  168.1494 O.3     1  UNL1       -0.4575
     38 C         140.0268  141.2780  169.6041 C.3     1  UNL1        0.2378
     39 N         143.4198  140.4996  170.6018 N.3     1  UNL1       -0.3181
     40 C         142.6190  141.7598  170.4587 C.3     1  UNL1        0.1121
     41 C         142.8920  143.2196  170.6696 C.3     1  UNL1        0.1602
     42 O         141.4865  143.5420  170.2563 O.3     1  UNL1       -0.3495
     43 C         141.2136  142.0823  170.0454 C.3     1  UNL1        0.1753
     44 H         144.3622  140.7295  170.9172 H       1  UNL1        0.1190
     45 H         143.4694  140.0241  169.7008 H       1  UNL1        0.1190
@<TRIPOS>BOND
     1    40    39    1
     2    40    41    1
     3    41    42    1
     4    42    43    1
     5    43    38    1
     6    38    37    1
     7    37    26    1
     8    26    27   ar
     9    27    28   ar
    10    28    29   ar
    11    29    30   ar
    12    30    31   ar
    13    31    32   ar
    14    32    33    1
    15    32    34   ar
    16    34    25    1
    17    25    24    1
    18    24     1    1
    19     1     2    1
    20     2     3    1
    21     3     4    1
    22     4     9    1
    23     9    11    1
    24    11    12    1
    25    12    13   ar
    26    13    14   ar
    27    14    15   ar
    28    15    16   ar
    29    16    17   ar
    30    16    18    1
    31    18    19   am
    32    19    20    2
    33    19    21    1
    34    21    22    1
    35     4     5    1
    36     5     6    1
    37     4     7    1
    38     7     8    1
    39    34    35   ar
    40    35    36   ar
    41    43    40    1
    42    36    26   ar
    43    35    29   ar
    44     6     1    1
    45     8     1    1
    46    17    12   ar
    47    22    15    1
    48    39    44    1
    49    39    45    1
    50     9    10    1
    51    18    23    1
@<TRIPOS>MOLECULE
*****
 45 51 0 0 0
SMALL
GASTEIGER

@<TRIPOS>ATOM
      1 C         137.9524  142.7069  163.8547 C.3     1  UNL1        0.0932
      2 C         137.7679  142.5786  162.3717 C.3     1  UNL1        0.0286
      3 C         137.7342  141.2208  161.7348 C.3     1  UNL1        0.0193
      4 C         137.8849  139.9915  162.5810 C.3     1  UNL1        0.0700
      5 C         138.0695  140.1199  164.0641 C.3     1  UNL1        0.0193
      6 C         138.1032  141.4776  164.7009 C.3     1  UNL1        0.0286
      7 C         137.9099  140.7140  162.9752 C.3     1  UNL1        0.1562
      8 O         137.9404  141.9417  163.5510 O.3     1  UNL1       -0.3572
      9 N         137.8512  138.6339  161.9442 N.3     1  UNL1       -0.2926
     10 H         137.1177  138.6590  161.2359 H       1  UNL1        0.1236
     11 C         139.0787  138.0877  161.2772 C.3     1  UNL1        0.1152
     12 C         140.4335  138.3597  161.8610 C.ar    1  UNL1        0.0765
     13 C         141.5293  138.9022  160.9922 C.ar    1  UNL1        0.0193
     14 C         142.8840  139.1742  161.5759 C.ar    1  UNL1        0.0411
     15 C         143.1429  138.9036  163.0284 C.ar    1  UNL1        0.1708
     16 C         142.0470  138.3611  163.8972 C.ar    1  UNL1        0.1682
     17 N         140.6923  138.0891  163.3135 N.ar    1  UNL1       -0.2304
     18 N         142.3060  138.0905  165.3497 N.am    1  UNL1       -0.2639
     19 C         143.6607  138.3625  165.9334 C.2     1  UNL1        0.2718
     20 O         143.9196  138.0919  167.3860 O.2     1  UNL1       -0.2707
     21 C         144.7565  138.9050  165.0646 C.3     1  UNL1        0.2898
     22 O         144.4976  139.1756  163.6122 O.3     1  UNL1       -0.4628
     23 H         141.5868  137.7343  165.9199 H       1  UNL1        0.1565
     24 C         137.9862  144.0646  164.4916 C.3     1  UNL1        0.0320
     25 C         139.2967  144.7658  164.6938 C.3     1  UNL1        0.0327
     26 C         143.1280  142.5786  165.5811 C.ar    1  UNL1        0.2250
     27 C         144.1980  142.4851  164.5341 C.ar    1  UNL1        0.0593
     28 C         143.9909  143.1207  163.1913 C.ar    1  UNL1        0.0254
     29 C         142.7138  143.8497  162.8956 C.ar    1  UNL1        0.0990
     30 N         142.5067  144.4854  161.5527 N.ar    1  UNL1       -0.2400
     31 C         141.2296  145.2144  161.2569 C.ar    1  UNL1        0.1281
     32 C         140.1596  145.3079  162.3040 C.ar    1  UNL1        0.1566
     33 F         138.8825  146.0370  162.0083 F       1  UNL1       -0.2028
     34 C         140.3667  144.6723  163.6468 C.ar    1  UNL1        0.0261
     35 C         141.6438  143.9432  163.9426 C.ar    1  UNL1        0.1002
     36 N         141.8509  143.3076  165.2854 N.ar    1  UNL1       -0.2104
     37 O         143.3350  141.9430  166.9240 O.3     1  UNL1       -0.4575
     38 C         142.1522  141.5247  167.7462 C.3     1  UNL1        0.2378
     39 N         142.7733  142.8967  171.0395 N.3     1  UNL1       -0.3181
     40 C         141.7179  143.0908  169.9914 C.3     1  UNL1        0.1121
     41 C         140.4827  143.9335  169.8733 C.3     1  UNL1        0.1602
     42 O         140.2255  143.3652  168.5091 O.3     1  UNL1       -0.3495
     43 C         141.4606  142.5225  168.6272 C.3     1  UNL1        0.1753
     44 H         142.5691  143.4923  171.8419 H       1  UNL1        0.1190
     45 H         143.6845  143.1453  170.6545 H       1  UNL1        0.1190
@<TRIPOS>BOND
     1    40    39    1
     2    40    41    1
     3    41    42    1
     4    42    43    1
     5    43    38    1
     6    38    37    1
     7    37    26    1
     8    26    27   ar
     9    27    28   ar
    10    28    29   ar
    11    29    30   ar
    12    30    31   ar
    13    31    32   ar
    14    32    33    1
    15    32    34   ar
    16    34    25    1
    17    25    24    1
    18    24     1    1
    19     1     2    1
    20     2     3    1
    21     3     4    1
    22     4     9    1
    23     9    11    1
    24    11    12    1
    25    12    13   ar
    26    13    14   ar
    27    14    15   ar
    28    15    16   ar
    29    16    17   ar
    30    16    18    1
    31    18    19   am
    32    19    20    2
    33    19    21    1
    34    21    22    1
    35     4     5    1
    36     5     6    1
    37     4     7    1
    38     7     8    1
    39    34    35   ar
    40    35    36   ar
    41    43    40    1
    42    36    26   ar
    43    35    29   ar
    44     6     1    1
    45     8     1    1
    46    17    12   ar
    47    22    15    1
    48    39    44    1
    49    39    45    1
    50     9    10    1
    51    18    23    1
@<TRIPOS>MOLECULE
*****
 45 51 0 0 0
SMALL
GASTEIGER

@<TRIPOS>ATOM
      1 C         141.4418  137.9262  164.3147 C.3     1  UNL1        0.0932
      2 C         140.0469  137.8774  164.8641 C.3     1  UNL1        0.0286
      3 C         138.8737  137.8443  163.9300 C.3     1  UNL1        0.0193
      4 C         139.0954  137.8599  162.4466 C.3     1  UNL1        0.0700
      5 C         140.4904  137.9087  161.8972 C.3     1  UNL1        0.0193
      6 C         141.6635  137.9418  162.8313 C.3     1  UNL1        0.0286
      7 C         139.7696  137.8793  162.9189 C.3     1  UNL1        0.1562
      8 O         140.8304  137.9093  163.7635 O.3     1  UNL1       -0.3572
      9 N         137.9222  137.8268  161.5125 N.3     1  UNL1       -0.2926
     10 H         137.2378  137.1909  161.9219 H       1  UNL1        0.1236
     11 C         137.1917  139.0941  161.1808 C.3     1  UNL1        0.1152
     12 C         137.8321  140.4227  161.4547 C.ar    1  UNL1        0.0765
     13 C         138.7866  141.0143  160.4603 C.ar    1  UNL1        0.0193
     14 C         139.4270  142.3428  160.7341 C.ar    1  UNL1        0.0411
     15 C         139.1128  143.0796  162.0023 C.ar    1  UNL1        0.1708
     16 C         138.1583  142.4879  162.9967 C.ar    1  UNL1        0.1682
     17 N         137.5179  141.1595  162.7229 N.ar    1  UNL1       -0.2304
     18 N         137.8441  143.2248  164.2650 N.am    1  UNL1       -0.2639
     19 C         138.4845  144.5533  164.5388 C.2     1  UNL1        0.2718
     20 O         138.1704  145.2902  165.8071 O.2     1  UNL1       -0.2707
     21 C         139.4391  145.1449  163.5444 C.3     1  UNL1        0.2898
     22 O         139.7532  144.4081  162.2762 O.3     1  UNL1       -0.4628
     23 H         137.2177  142.8365  164.9176 H       1  UNL1        0.1565
     24 C         142.6151  137.9593  165.2488 C.3     1  UNL1        0.0320
     25 C         143.2752  139.2655  165.5777 C.3     1  UNL1        0.0327
     26 C         142.8627  139.7118  170.0365 C.ar    1  UNL1        0.2250
     27 C         142.0530  140.8388  170.6058 C.ar    1  UNL1        0.0593
     28 C         141.3808  141.8172  169.6887 C.ar    1  UNL1        0.0254
     29 C         141.5183  141.6684  168.2025 C.ar    1  UNL1        0.0990
     30 N         140.8461  142.6469  167.2854 N.ar    1  UNL1       -0.2400
     31 C         140.9836  142.4981  165.7992 C.ar    1  UNL1        0.1281
     32 C         141.7933  141.3709  165.2299 C.ar    1  UNL1        0.1566
     33 F         141.9308  141.2222  163.7437 F       1  UNL1       -0.2028
     34 C         142.4655  140.3926  166.1470 C.ar    1  UNL1        0.0261
     35 C         142.3280  140.5414  167.6332 C.ar    1  UNL1        0.1002
     36 N         143.0002  139.5630  168.5503 N.ar    1  UNL1       -0.2104
     37 O         143.5349  138.7333  170.9536 O.3     1  UNL1       -0.4575
     38 C         143.5477  137.2727  170.6126 C.3     1  UNL1        0.2378
     39 N         147.1004  137.0050  171.2608 N.3     1  UNL1       -0.3181
     40 C         145.8874  136.2176  171.6589 C.3     1  UNL1        0.1121
     41 C         145.6434  134.9933  172.4904 C.3     1  UNL1        0.1602
     42 O         144.1718  135.1042  172.2219 O.3     1  UNL1       -0.3495
     43 C         144.4158  136.3285  171.3904 C.3     1  UNL1        0.1753
     44 H         147.9319  136.5781  171.6693 H       1  UNL1        0.1190
     45 H         147.0096  137.9633  171.5982 H       1  UNL1        0.1190
@<TRIPOS>BOND
     1    40    39    1
     2    40    41    1
     3    41    42    1
     4    42    43    1
     5    43    38    1
     6    38    37    1
     7    37    26    1
     8    26    27   ar
     9    27    28   ar
    10    28    29   ar
    11    29    30   ar
    12    30    31   ar
    13    31    32   ar
    14    32    33    1
    15    32    34   ar
    16    34    25    1
    17    25    24    1
    18    24     1    1
    19     1     2    1
    20     2     3    1
    21     3     4    1
    22     4     9    1
    23     9    11    1
    24    11    12    1
    25    12    13   ar
    26    13    14   ar
    27    14    15   ar
    28    15    16   ar
    29    16    17   ar
    30    16    18    1
    31    18    19   am
    32    19    20    2
    33    19    21    1
    34    21    22    1
    35     4     5    1
    36     5     6    1
    37     4     7    1
    38     7     8    1
    39    34    35   ar
    40    35    36   ar
    41    43    40    1
    42    36    26   ar
    43    35    29   ar
    44     6     1    1
    45     8     1    1
    46    17    12   ar
    47    22    15    1
    48    39    44    1
    49    39    45    1
    50     9    10    1
    51    18    23    1
@<TRIPOS>MOLECULE
*****
 45 51 0 0 0
SMALL
GASTEIGER

@<TRIPOS>ATOM
      1 C         141.8145  137.9447  164.5946 C.3     1  UNL1        0.0932
      2 C         140.3870  137.7756  165.0232 C.3     1  UNL1        0.0286
      3 C         139.3010  137.6791  163.9930 C.3     1  UNL1        0.0193
      4 C         139.6425  137.7517  162.5342 C.3     1  UNL1        0.0700
      5 C         141.0700  137.9208  162.1056 C.3     1  UNL1        0.0193
      6 C         142.1560  138.0173  163.1358 C.3     1  UNL1        0.0286
      7 C         140.2719  137.8093  163.0620 C.3     1  UNL1        0.1562
      8 O         141.2538  137.8965  163.9935 O.3     1  UNL1       -0.3572
      9 N         138.5565  137.6552  161.5040 N.3     1  UNL1       -0.2926
     10 H         138.1064  136.7493  161.6346 H       1  UNL1        0.1236
     11 C         137.4628  138.6811  161.4689 C.3     1  UNL1        0.1152
     12 C         137.8003  140.1404  161.5504 C.ar    1  UNL1        0.0765
     13 C         138.1895  140.8904  160.3110 C.ar    1  UNL1        0.0193
     14 C         138.5270  142.3497  160.3924 C.ar    1  UNL1        0.0411
     15 C         138.4753  143.0589  161.7131 C.ar    1  UNL1        0.1708
     16 C         138.0861  142.3088  162.9525 C.ar    1  UNL1        0.1682
     17 N         137.7486  140.8496  162.8711 N.ar    1  UNL1       -0.2304
     18 N         138.0344  143.0181  164.2732 N.am    1  UNL1       -0.2639
     19 C         138.3719  144.4773  164.3546 C.2     1  UNL1        0.2718
     20 O         138.3203  145.1866  165.6754 O.2     1  UNL1       -0.2707
     21 C         138.7612  145.2274  163.1153 C.3     1  UNL1        0.2898
     22 O         138.8129  144.5182  161.7946 O.3     1  UNL1       -0.4628
     23 H         137.7790  142.5258  165.0867 H       1  UNL1        0.1565
     24 C         142.9005  138.0412  165.6249 C.3     1  UNL1        0.0320
     25 C         143.4588  139.3812  166.0028 C.3     1  UNL1        0.0327
     26 C         144.0047  142.7803  163.1048 C.ar    1  UNL1        0.2250
     27 C         143.1024  143.9765  163.1733 C.ar    1  UNL1        0.0593
     28 C         142.0180  144.0397  164.2078 C.ar    1  UNL1        0.0254
     29 C         141.8361  142.9067  165.1738 C.ar    1  UNL1        0.0990
     30 N         140.7517  142.9699  166.2083 N.ar    1  UNL1       -0.2400
     31 C         140.5697  141.8369  167.1743 C.ar    1  UNL1        0.1281
     32 C         141.4721  140.6406  167.1058 C.ar    1  UNL1        0.1566
     33 F         141.2901  139.5076  168.0717 F       1  UNL1       -0.2028
     34 C         142.5564  140.5774  166.0713 C.ar    1  UNL1        0.0261
     35 C         142.7384  141.7104  165.1053 C.ar    1  UNL1        0.1002
     36 N         143.8228  141.6472  164.0708 N.ar    1  UNL1       -0.2104
     37 O         145.0891  142.7170  162.0703 O.3     1  UNL1       -0.4575
     38 C         144.7362  142.5337  160.6241 C.3     1  UNL1        0.2378
     39 N         144.0616  139.0349  159.9784 N.3     1  UNL1       -0.3181
     40 C         143.2420  140.2911  159.9758 C.3     1  UNL1        0.1121
     41 C         141.8035  140.6185  159.7046 C.3     1  UNL1        0.1602
     42 O         142.0830  142.0678  159.9720 O.3     1  UNL1       -0.3495
     43 C         143.5214  141.7404  160.2432 C.3     1  UNL1        0.1753
     44 H         143.4686  138.2415  159.7349 H       1  UNL1        0.1190
     45 H         144.4589  138.8901  160.9067 H       1  UNL1        0.1190
@<TRIPOS>BOND
     1    40    39    1
     2    40    41    1
     3    41    42    1
     4    42    43    1
     5    43    38    1
     6    38    37    1
     7    37    26    1
     8    26    27   ar
     9    27    28   ar
    10    28    29   ar
    11    29    30   ar
    12    30    31   ar
    13    31    32   ar
    14    32    33    1
    15    32    34   ar
    16    34    25    1
    17    25    24    1
    18    24     1    1
    19     1     2    1
    20     2     3    1
    21     3     4    1
    22     4     9    1
    23     9    11    1
    24    11    12    1
    25    12    13   ar
    26    13    14   ar
    27    14    15   ar
    28    15    16   ar
    29    16    17   ar
    30    16    18    1
    31    18    19   am
    32    19    20    2
    33    19    21    1
    34    21    22    1
    35     4     5    1
    36     5     6    1
    37     4     7    1
    38     7     8    1
    39    34    35   ar
    40    35    36   ar
    41    43    40    1
    42    36    26   ar
    43    35    29   ar
    44     6     1    1
    45     8     1    1
    46    17    12   ar
    47    22    15    1
    48    39    44    1
    49    39    45    1
    50     9    10    1
    51    18    23    1
@<TRIPOS>MOLECULE
*****
 45 51 0 0 0
SMALL
GASTEIGER

@<TRIPOS>ATOM
      1 C         141.7726  138.4239  164.4023 C.3     1  UNL1        0.0932
      2 C         142.9780  138.6393  165.2686 C.3     1  UNL1        0.0286
      3 C         144.1803  139.3477  164.7184 C.3     1  UNL1        0.0193
      4 C         144.1772  139.8407  163.3018 C.3     1  UNL1        0.0700
      5 C         142.9717  139.6254  162.4354 C.3     1  UNL1        0.0193
      6 C         141.7695  138.9170  162.9856 C.3     1  UNL1        0.0286
      7 C         143.4949  139.4580  163.5589 C.3     1  UNL1        0.1562
      8 O         142.4079  138.8174  164.0565 O.3     1  UNL1       -0.3572
      9 N         145.3794  140.5491  162.7515 N.3     1  UNL1       -0.2926
     10 H         145.3458  140.4421  161.7377 H       1  UNL1        0.1236
     11 C         145.5800  142.0100  163.0263 C.3     1  UNL1        0.1152
     12 C         144.4059  142.9434  163.0153 C.ar    1  UNL1        0.0765
     13 C         143.9498  143.5899  164.2897 C.ar    1  UNL1        0.0193
     14 C         142.7757  144.5233  164.2788 C.ar    1  UNL1        0.0411
     15 C         142.0577  144.8103  162.9935 C.ar    1  UNL1        0.1708
     16 C         142.5137  144.1638  161.7191 C.ar    1  UNL1        0.1682
     17 N         143.6878  143.2304  161.7300 N.ar    1  UNL1       -0.2304
     18 N         141.7956  144.4508  160.4338 N.am    1  UNL1       -0.2639
     19 C         140.6215  145.3842  160.4228 C.2     1  UNL1        0.2718
     20 O         139.9034  145.6712  159.1375 O.2     1  UNL1       -0.2707
     21 C         140.1655  146.0307  161.6972 C.3     1  UNL1        0.2898
     22 O         140.8835  145.7437  162.9825 O.3     1  UNL1       -0.4628
     23 H         142.0949  144.0265  159.5973 H       1  UNL1        0.1565
     24 C         140.5703  137.7155  164.9525 C.3     1  UNL1        0.0320
     25 C         139.4200  138.5063  165.5017 C.3     1  UNL1        0.0327
     26 C         137.8164  141.3295  162.3860 C.ar    1  UNL1        0.2250
     27 C         137.9485  142.8114  162.5776 C.ar    1  UNL1        0.0593
     28 C         138.6151  143.3521  163.8077 C.ar    1  UNL1        0.0254
     29 C         139.1496  142.4110  164.8462 C.ar    1  UNL1        0.0990
     30 N         139.8163  142.9518  166.0764 N.ar    1  UNL1       -0.2400
     31 C         140.3508  142.0107  167.1149 C.ar    1  UNL1        0.1281
     32 C         140.2187  140.5288  166.9233 C.ar    1  UNL1        0.1566
     33 F         140.7533  139.5877  167.9619 F       1  UNL1       -0.2028
     34 C         139.5521  139.9881  165.6932 C.ar    1  UNL1        0.0261
     35 C         139.0176  140.9292  164.6547 C.ar    1  UNL1        0.1002
     36 N         138.3510  140.3884  163.4246 N.ar    1  UNL1       -0.2104
     37 O         137.1498  140.7888  161.1558 O.3     1  UNL1       -0.4575
     38 C         137.8151  139.7085  160.3557 C.3     1  UNL1        0.2378
     39 N         139.6772  142.4845  158.9629 N.3     1  UNL1       -0.3181
     40 C         139.9869  141.0510  159.2773 C.3     1  UNL1        0.1121
     41 C         141.1963  140.1735  159.1451 C.3     1  UNL1        0.1602
     42 O         140.4249  139.0236  159.7220 O.3     1  UNL1       -0.3495
     43 C         139.2156  139.9010  159.8542 C.3     1  UNL1        0.1753
     44 H         140.5049  142.9330  158.5701 H       1  UNL1        0.1190
     45 H         139.4017  142.9682  159.8176 H       1  UNL1        0.1190
@<TRIPOS>BOND
     1    40    39    1
     2    40    41    1
     3    41    42    1
     4    42    43    1
     5    43    38    1
     6    38    37    1
     7    37    26    1
     8    26    27   ar
     9    27    28   ar
    10    28    29   ar
    11    29    30   ar
    12    30    31   ar
    13    31    32   ar
    14    32    33    1
    15    32    34   ar
    16    34    25    1
    17    25    24    1
    18    24     1    1
    19     1     2    1
    20     2     3    1
    21     3     4    1
    22     4     9    1
    23     9    11    1
    24    11    12    1
    25    12    13   ar
    26    13    14   ar
    27    14    15   ar
    28    15    16   ar
    29    16    17   ar
    30    16    18    1
    31    18    19   am
    32    19    20    2
    33    19    21    1
    34    21    22    1
    35     4     5    1
    36     5     6    1
    37     4     7    1
    38     7     8    1
    39    34    35   ar
    40    35    36   ar
    41    43    40    1
    42    36    26   ar
    43    35    29   ar
    44     6     1    1
    45     8     1    1
    46    17    12   ar
    47    22    15    1
    48    39    44    1
    49    39    45    1
    50     9    10    1
    51    18    23    1
@<TRIPOS>MOLECULE
*****
 45 51 0 0 0
SMALL
GASTEIGER

@<TRIPOS>ATOM
      1 C         143.2539  143.2682  162.0085 C.3     1  UNL1        0.0932
      2 C         142.7077  142.9330  160.6524 C.3     1  UNL1        0.0286
      3 C         141.2480  143.1235  160.3637 C.3     1  UNL1        0.0193
      4 C         140.3347  143.6492  161.4312 C.3     1  UNL1        0.0700
      5 C         140.8811  143.9844  162.7874 C.3     1  UNL1        0.0193
      6 C         142.3407  143.7939  163.0760 C.3     1  UNL1        0.0286
      7 C         141.1273  143.5615  161.6365 C.3     1  UNL1        0.1562
      8 O         142.4471  143.3893  161.8974 O.3     1  UNL1       -0.3572
      9 N         138.8752  143.8396  161.1426 N.3     1  UNL1       -0.2926
     10 H         138.8138  144.4142  160.3021 H       1  UNL1        0.1236
     11 C         137.9934  142.6473  160.9175 C.3     1  UNL1        0.1152
     12 C         138.2302  141.3829  161.6891 C.ar    1  UNL1        0.0765
     13 C         138.7416  140.1602  160.9865 C.ar    1  UNL1        0.0193
     14 C         138.9785  138.8959  161.7580 C.ar    1  UNL1        0.0411
     15 C         138.7039  138.8542  163.2321 C.ar    1  UNL1        0.1708
     16 C         138.1925  140.0769  163.9346 C.ar    1  UNL1        0.1682
     17 N         137.9557  141.3412  163.1631 N.ar    1  UNL1       -0.2304
     18 N         137.9180  140.0352  165.4087 N.am    1  UNL1       -0.2639
     19 C         138.1548  138.7708  166.1803 C.2     1  UNL1        0.2718
     20 O         137.8803  138.7291  167.6544 O.2     1  UNL1       -0.2707
     21 C         138.6662  137.5481  165.4777 C.3     1  UNL1        0.2898
     22 O         138.9408  137.5898  164.0037 O.3     1  UNL1       -0.4628
     23 H         137.5823  140.8376  165.8699 H       1  UNL1        0.1565
     24 C         144.7136  143.0777  162.2972 C.3     1  UNL1        0.0320
     25 C         145.1886  141.8203  162.9630 C.3     1  UNL1        0.0327
     26 C         143.0666  141.5471  166.9219 C.ar    1  UNL1        0.2250
     27 C         142.1042  140.4262  167.1812 C.ar    1  UNL1        0.0593
     28 C         141.8491  139.3964  166.1209 C.ar    1  UNL1        0.0254
     29 C         142.5564  139.4874  164.8013 C.ar    1  UNL1        0.0990
     30 N         142.3013  138.4575  163.7410 N.ar    1  UNL1       -0.2400
     31 C         143.0086  138.5486  162.4213 C.ar    1  UNL1        0.1281
     32 C         143.9711  139.6696  162.1620 C.ar    1  UNL1        0.1566
     33 F         144.6784  139.7606  160.8424 F       1  UNL1       -0.2028
     34 C         144.2262  140.6994  163.2224 C.ar    1  UNL1        0.0261
     35 C         143.5188  140.6083  164.5420 C.ar    1  UNL1        0.1002
     36 N         143.7739  141.6382  165.6023 N.ar    1  UNL1       -0.2104
     37 O         143.3218  142.5770  167.9823 O.3     1  UNL1       -0.4575
     38 C         143.0072  142.2707  169.4165 C.3     1  UNL1        0.2378
     39 N         140.8154  140.7786  171.8829 N.3     1  UNL1       -0.3181
     40 C         140.7486  141.9878  170.9979 C.3     1  UNL1        0.1121
     41 C         139.7464  143.0799  170.7680 C.3     1  UNL1        0.1602
     42 O         140.6543  143.6979  169.7463 O.3     1  UNL1       -0.3495
     43 C         141.6565  142.6059  169.9763 C.3     1  UNL1        0.1753
     44 H         139.9646  140.7193  172.4424 H       1  UNL1        0.1190
     45 H         141.6238  140.8533  172.5004 H       1  UNL1        0.1190
@<TRIPOS>BOND
     1    40    39    1
     2    40    41    1
     3    41    42    1
     4    42    43    1
     5    43    38    1
     6    38    37    1
     7    37    26    1
     8    26    27   ar
     9    27    28   ar
    10    28    29   ar
    11    29    30   ar
    12    30    31   ar
    13    31    32   ar
    14    32    33    1
    15    32    34   ar
    16    34    25    1
    17    25    24    1
    18    24     1    1
    19     1     2    1
    20     2     3    1
    21     3     4    1
    22     4     9    1
    23     9    11    1
    24    11    12    1
    25    12    13   ar
    26    13    14   ar
    27    14    15   ar
    28    15    16   ar
    29    16    17   ar
    30    16    18    1
    31    18    19   am
    32    19    20    2
    33    19    21    1
    34    21    22    1
    35     4     5    1
    36     5     6    1
    37     4     7    1
    38     7     8    1
    39    34    35   ar
    40    35    36   ar
    41    43    40    1
    42    36    26   ar
    43    35    29   ar
    44     6     1    1
    45     8     1    1
    46    17    12   ar
    47    22    15    1
    48    39    44    1
    49    39    45    1
    50     9    10    1
    51    18    23    1
@<TRIPOS>MOLECULE
*****
 45 51 0 0 0
SMALL
GASTEIGER

@<TRIPOS>ATOM
      1 C         142.9080  138.6468  163.2006 C.3     1  UNL1        0.0932
      2 C         142.7235  139.0185  161.7592 C.3     1  UNL1        0.0286
      3 C         141.3970  138.8025  161.0928 C.3     1  UNL1        0.0193
      4 C         140.2552  138.2148  161.8680 C.3     1  UNL1        0.0700
      5 C         140.4398  137.8432  163.3095 C.3     1  UNL1        0.0193
      6 C         141.7662  138.0591  163.9758 C.3     1  UNL1        0.0286
      7 C         140.9633  138.3145  162.2761 C.3     1  UNL1        0.1562
      8 O         142.1627  138.5098  162.8786 O.3     1  UNL1       -0.3572
      9 N         138.9288  137.9989  161.2017 N.3     1  UNL1       -0.2926
     10 H         138.6067  137.0720  161.4805 H       1  UNL1        0.1236
     11 C         137.7959  138.9471  161.4612 C.3     1  UNL1        0.1152
     12 C         138.0724  140.4065  161.6708 C.ar    1  UNL1        0.0765
     13 C         137.3763  141.1513  162.7712 C.ar    1  UNL1        0.0193
     14 C         137.6528  142.6106  162.9807 C.ar    1  UNL1        0.0411
     15 C         138.6253  143.3251  162.0899 C.ar    1  UNL1        0.1708
     16 C         139.3214  142.5803  160.9896 C.ar    1  UNL1        0.1682
     17 N         139.0450  141.1210  160.7800 N.ar    1  UNL1       -0.2304
     18 N         140.2940  143.2950  160.0987 N.am    1  UNL1       -0.2639
     19 C         140.5704  144.7543  160.3083 C.2     1  UNL1        0.2718
     20 O         141.5430  145.4689  159.4175 O.2     1  UNL1       -0.2707
     21 C         139.8744  145.4990  161.4087 C.3     1  UNL1        0.2898
     22 O         138.9018  144.7845  162.2995 O.3     1  UNL1       -0.4628
     23 H         140.7509  142.8062  159.3765 H       1  UNL1        0.1565
     24 C         144.2345  138.8628  163.8670 C.3     1  UNL1        0.0320
     25 C         144.4669  140.0923  164.6941 C.3     1  UNL1        0.0327
     26 C         140.6222  141.4928  166.5666 C.ar    1  UNL1        0.2250
     27 C         140.0185  142.8015  166.1509 C.ar    1  UNL1        0.0593
     28 C         140.6965  143.6434  165.1109 C.ar    1  UNL1        0.0254
     29 C         141.9781  143.1766  164.4867 C.ar    1  UNL1        0.0990
     30 N         142.6561  144.0185  163.4468 N.ar    1  UNL1       -0.2400
     31 C         143.9377  143.5517  162.8226 C.ar    1  UNL1        0.1281
     32 C         144.5413  142.2429  163.2384 C.ar    1  UNL1        0.1566
     33 F         145.8229  141.7761  162.6142 F       1  UNL1       -0.2028
     34 C         143.8633  141.4010  164.2783 C.ar    1  UNL1        0.0261
     35 C         142.5817  141.8679  164.9025 C.ar    1  UNL1        0.1002
     36 N         141.9037  141.0260  165.9424 N.ar    1  UNL1       -0.2104
     37 O         139.9442  140.6508  167.6066 O.3     1  UNL1       -0.4575
     38 C         140.4904  140.5992  169.0026 C.3     1  UNL1        0.2378
     39 N         143.4166  139.7569  170.9627 N.3     1  UNL1       -0.3181
     40 C         142.9950  140.9382  170.1401 C.3     1  UNL1        0.1121
     41 C         143.6109  142.2600  169.7887 C.3     1  UNL1        0.1602
     42 O         142.3988  142.6089  168.9768 O.3     1  UNL1       -0.3495
     43 C         141.7830  141.2872  169.3282 C.3     1  UNL1        0.1753
     44 H         144.3408  139.9301  171.3579 H       1  UNL1        0.1190
     45 H         143.4496  138.9258  170.3722 H       1  UNL1        0.1190
@<TRIPOS>BOND
     1    40    39    1
     2    40    41    1
     3    41    42    1
     4    42    43    1
     5    43    38    1
     6    38    37    1
     7    37    26    1
     8    26    27   ar
     9    27    28   ar
    10    28    29   ar
    11    29    30   ar
    12    30    31   ar
    13    31    32   ar
    14    32    33    1
    15    32    34   ar
    16    34    25    1
    17    25    24    1
    18    24     1    1
    19     1     2    1
    20     2     3    1
    21     3     4    1
    22     4     9    1
    23     9    11    1
    24    11    12    1
    25    12    13   ar
    26    13    14   ar
    27    14    15   ar
    28    15    16   ar
    29    16    17   ar
    30    16    18    1
    31    18    19   am
    32    19    20    2
    33    19    21    1
    34    21    22    1
    35     4     5    1
    36     5     6    1
    37     4     7    1
    38     7     8    1
    39    34    35   ar
    40    35    36   ar
    41    43    40    1
    42    36    26   ar
    43    35    29   ar
    44     6     1    1
    45     8     1    1
    46    17    12   ar
    47    22    15    1
    48    39    44    1
    49    39    45    1
    50     9    10    1
    51    18    23    1
