@<TRIPOS>MOLECULE
*****
 36 40 0 0 0
SMALL
GASTEIGER

@<TRIPOS>ATOM
      1 N         137.8554  142.9411  162.9341 N.3     1  UNL1       -0.2710
      2 C         138.0634  142.6467  161.4780 C.3     1  UNL1        0.0735
      3 C         138.0832  141.2267  160.9953 C.3     1  UNL1        0.0331
      4 C         137.8950  140.1010  161.9686 C.3     1  UNL1        0.0570
      5 C         137.6870  140.3954  163.4247 C.3     1  UNL1        0.0331
      6 C         137.6672  141.8154  163.9074 C.3     1  UNL1        0.0735
      7 N         137.9149  138.6809  161.4859 N.3     1  UNL1       -0.2934
      8 H         137.3352  138.6468  160.6473 H       1  UNL1        0.1236
      9 C         139.2183  138.0251  161.1383 C.3     1  UNL1        0.1152
     10 C         140.4142  138.2175  162.0231 C.ar    1  UNL1        0.0765
     11 C         140.5699  137.3897  163.2642 C.ar    1  UNL1        0.0193
     12 C         141.7658  137.5822  164.1490 C.ar    1  UNL1        0.0411
     13 C         142.8060  138.6025  163.7926 C.ar    1  UNL1        0.1708
     14 C         142.6503  139.4303  162.5514 C.ar    1  UNL1        0.1682
     15 N         141.4544  139.2378  161.6667 N.ar    1  UNL1       -0.2304
     16 N         143.6905  140.4505  162.1950 N.am    1  UNL1       -0.2639
     17 C         144.8864  140.6430  163.0798 C.2     1  UNL1        0.2718
     18 O         145.9266  141.6633  162.7234 O.2     1  UNL1       -0.2707
     19 C         145.0421  139.8152  164.3209 C.3     1  UNL1        0.2898
     20 O         144.0019  138.7949  164.6773 O.3     1  UNL1       -0.4628
     21 H         143.5883  140.9939  161.3804 H       1  UNL1        0.1565
     22 C         137.8356  144.3612  163.4168 C.3     1  UNL1        0.0970
     23 C         138.8387  144.8223  164.4322 C.3     1  UNL1        0.1278
     24 C         140.8732  141.9386  167.2242 C.ar    1  UNL1        0.2263
     25 C         142.3270  141.6173  167.0418 C.ar    1  UNL1        0.0578
     26 C         143.1026  142.2572  165.9287 C.ar    1  UNL1        0.0078
     27 C         142.4245  143.2184  164.9981 C.ar    1  UNL1        0.0346
     28 C         143.2001  143.8583  163.8850 C.ar    1  UNL1        0.0079
     29 C         142.5220  144.8195  162.9543 C.ar    1  UNL1        0.0609
     30 C         141.0681  145.1409  163.1367 C.ar    1  UNL1        0.2621
     31 O         140.3900  146.1021  162.2061 O.2     1  UNL1       -0.2669
     32 N         140.2925  144.5010  164.2498 N.ar    1  UNL1       -0.2791
     33 C         140.9707  143.5397  165.1805 C.ar    1  UNL1        0.1491
     34 N         140.1951  142.8998  166.2935 N.ar    1  UNL1       -0.1942
     35 C         139.3939  139.9940  168.1076 C.3     1  UNL1        0.2542
     36 O         140.0976  141.2987  168.3372 O.3     1  UNL1       -0.4561
@<TRIPOS>BOND
     1    35    36    1
     2    36    24    1
     3    24    25   ar
     4    25    26   ar
     5    26    27   ar
     6    27    28   ar
     7    28    29   ar
     8    29    30   ar
     9    30    31    2
    10    30    32   ar
    11    32    23    1
    12    23    22    1
    13    22     1    1
    14     1     2    1
    15     2     3    1
    16     3     4    1
    17     4     7    1
    18     7     9    1
    19     9    10    1
    20    10    11   ar
    21    11    12   ar
    22    12    13   ar
    23    13    14   ar
    24    14    15   ar
    25    14    16    1
    26    16    17   am
    27    17    18    2
    28    17    19    1
    29    19    20    1
    30     4     5    1
    31     5     6    1
    32    32    33   ar
    33    33    34   ar
    34    34    24   ar
    35    33    27   ar
    36     6     1    1
    37    15    10   ar
    38    20    13    1
    39     7     8    1
    40    16    21    1
@<TRIPOS>MOLECULE
*****
 36 40 0 0 0
SMALL
GASTEIGER

@<TRIPOS>ATOM
      1 N         141.7738  138.1661  164.2484 N.3     1  UNL1       -0.2710
      2 C         142.8307  138.5296  165.2488 C.3     1  UNL1        0.0735
      3 C         144.0478  139.2894  164.8115 C.3     1  UNL1        0.0331
      4 C         144.2080  139.6856  163.3737 C.3     1  UNL1        0.0570
      5 C         143.1512  139.3221  162.3733 C.3     1  UNL1        0.0331
      6 C         141.9341  138.5623  162.8106 C.3     1  UNL1        0.0735
      7 N         145.4252  140.4455  162.9363 N.3     1  UNL1       -0.2934
      8 H         145.4887  140.3420  161.9236 H       1  UNL1        0.1236
      9 C         145.5394  141.9120  163.2298 C.3     1  UNL1        0.1152
     10 C         144.3317  142.7950  163.1211 C.ar    1  UNL1        0.0765
     11 C         143.6625  143.3065  164.3622 C.ar    1  UNL1        0.0193
     12 C         142.4547  144.1895  164.2535 C.ar    1  UNL1        0.0411
     13 C         141.9163  144.5609  162.9036 C.ar    1  UNL1        0.1708
     14 C         142.5856  144.0493  161.6625 C.ar    1  UNL1        0.1682
     15 N         143.7933  143.1663  161.7712 N.ar    1  UNL1       -0.2304
     16 N         142.0471  144.4207  160.3126 N.am    1  UNL1       -0.2639
     17 C         140.8393  145.3036  160.2039 C.2     1  UNL1        0.2718
     18 O         140.3009  145.6750  158.8541 O.2     1  UNL1       -0.2707
     19 C         140.1701  145.8152  161.4450 C.3     1  UNL1        0.2898
     20 O         140.7086  145.4438  162.7949 O.3     1  UNL1       -0.4628
     21 H         142.4863  144.0849  159.4980 H       1  UNL1        0.1565
     22 C         140.5566  137.4062  164.6858 C.3     1  UNL1        0.0970
     23 C         139.3489  138.1453  165.1808 C.3     1  UNL1        0.1278
     24 C         140.8730  141.0562  168.2555 C.ar    1  UNL1        0.2263
     25 C         140.7473  142.5319  168.0182 C.ar    1  UNL1        0.0578
     26 C         140.1137  143.0374  166.7561 C.ar    1  UNL1        0.0078
     27 C         139.6057  142.0672  165.7312 C.ar    1  UNL1        0.0346
     28 C         138.9720  142.5727  164.4691 C.ar    1  UNL1        0.0079
     29 C         138.4640  141.6024  163.4442 C.ar    1  UNL1        0.0609
     30 C         138.5896  140.1266  163.6814 C.ar    1  UNL1        0.2621
     31 O         138.0816  139.1563  162.6565 O.2     1  UNL1       -0.2669
     32 N         139.2232  139.6211  164.9435 N.ar    1  UNL1       -0.2791
     33 C         139.7313  140.5914  165.9684 C.ar    1  UNL1        0.1491
     34 N         140.3649  140.0859  167.2306 N.ar    1  UNL1       -0.1942
     35 C         142.4296  139.3692  169.4724 C.3     1  UNL1        0.2542
     36 O         141.5066  140.5507  169.5176 O.3     1  UNL1       -0.4561
@<TRIPOS>BOND
     1    35    36    1
     2    36    24    1
     3    24    25   ar
     4    25    26   ar
     5    26    27   ar
     6    27    28   ar
     7    28    29   ar
     8    29    30   ar
     9    30    31    2
    10    30    32   ar
    11    32    23    1
    12    23    22    1
    13    22     1    1
    14     1     2    1
    15     2     3    1
    16     3     4    1
    17     4     7    1
    18     7     9    1
    19     9    10    1
    20    10    11   ar
    21    11    12   ar
    22    12    13   ar
    23    13    14   ar
    24    14    15   ar
    25    14    16    1
    26    16    17   am
    27    17    18    2
    28    17    19    1
    29    19    20    1
    30     4     5    1
    31     5     6    1
    32    32    33   ar
    33    33    34   ar
    34    34    24   ar
    35    33    27   ar
    36     6     1    1
    37    15    10   ar
    38    20    13    1
    39     7     8    1
    40    16    21    1
@<TRIPOS>MOLECULE
*****
 36 40 0 0 0
SMALL
GASTEIGER

@<TRIPOS>ATOM
      1 N         144.5210  140.3754  163.0554 N.3     1  UNL1       -0.2710
      2 C         144.0155  139.4101  164.0862 C.3     1  UNL1        0.0735
      3 C         142.9501  138.4177  163.7258 C.3     1  UNL1        0.0331
      4 C         142.3902  138.3905  162.3345 C.3     1  UNL1        0.0570
      5 C         142.8958  139.3558  161.3036 C.3     1  UNL1        0.0331
      6 C         143.9611  140.3483  161.6641 C.3     1  UNL1        0.0735
      7 N         141.3248  137.3981  161.9740 N.3     1  UNL1       -0.2934
      8 H         141.2626  136.7382  162.7493 H       1  UNL1        0.1236
      9 C         139.9282  137.8666  161.6910 C.3     1  UNL1        0.1152
     10 C         139.3617  139.0337  162.4439 C.ar    1  UNL1        0.0765
     11 C         138.7639  138.8297  163.8044 C.ar    1  UNL1        0.0193
     12 C         138.1973  139.9968  164.5573 C.ar    1  UNL1        0.0411
     13 C         138.2285  141.3679  163.9496 C.ar    1  UNL1        0.1708
     14 C         138.8263  141.5718  162.5890 C.ar    1  UNL1        0.1682
     15 N         139.3928  140.4047  161.8362 N.ar    1  UNL1       -0.2304
     16 N         138.8575  142.9429  161.9814 N.am    1  UNL1       -0.2639
     17 C         138.2908  144.1100  162.7343 C.2     1  UNL1        0.2718
     18 O         138.3220  145.4810  162.1267 O.2     1  UNL1       -0.2707
     19 C         137.6931  143.9060  164.0948 C.3     1  UNL1        0.2898
     20 O         137.6619  142.5350  164.7025 O.3     1  UNL1       -0.4628
     21 H         139.2498  143.0767  161.0884 H       1  UNL1        0.1565
     22 C         145.5864  141.3679  163.4159 C.3     1  UNL1        0.0970
     23 C         145.2751  142.4939  164.3568 C.3     1  UNL1        0.1278
     24 C         142.3355  141.2452  167.5269 C.ar    1  UNL1        0.2263
     25 C         140.9602  141.8434  167.5518 C.ar    1  UNL1        0.0578
     26 C         140.5647  142.8577  166.5199 C.ar    1  UNL1        0.0078
     27 C         141.5445  143.2739  165.4632 C.ar    1  UNL1        0.0346
     28 C         141.1491  144.2883  164.4314 C.ar    1  UNL1        0.0079
     29 C         142.1289  144.7045  163.3747 C.ar    1  UNL1        0.0609
     30 C         143.5043  144.1063  163.3498 C.ar    1  UNL1        0.2621
     31 O         144.4842  144.5225  162.2931 O.2     1  UNL1       -0.2669
     32 N         143.8998  143.0920  164.3817 N.ar    1  UNL1       -0.2791
     33 C         142.9199  142.6758  165.4384 C.ar    1  UNL1        0.1491
     34 N         143.3154  141.6614  166.4702 N.ar    1  UNL1       -0.1942
     35 C         142.6931  140.5884  170.0150 C.3     1  UNL1        0.2542
     36 O         142.7310  140.2309  168.5588 O.3     1  UNL1       -0.4561
@<TRIPOS>BOND
     1    35    36    1
     2    36    24    1
     3    24    25   ar
     4    25    26   ar
     5    26    27   ar
     6    27    28   ar
     7    28    29   ar
     8    29    30   ar
     9    30    31    2
    10    30    32   ar
    11    32    23    1
    12    23    22    1
    13    22     1    1
    14     1     2    1
    15     2     3    1
    16     3     4    1
    17     4     7    1
    18     7     9    1
    19     9    10    1
    20    10    11   ar
    21    11    12   ar
    22    12    13   ar
    23    13    14   ar
    24    14    15   ar
    25    14    16    1
    26    16    17   am
    27    17    18    2
    28    17    19    1
    29    19    20    1
    30     4     5    1
    31     5     6    1
    32    32    33   ar
    33    33    34   ar
    34    34    24   ar
    35    33    27   ar
    36     6     1    1
    37    15    10   ar
    38    20    13    1
    39     7     8    1
    40    16    21    1
@<TRIPOS>MOLECULE
*****
 36 40 0 0 0
SMALL
GASTEIGER

@<TRIPOS>ATOM
      1 N         142.8809  144.3676  163.4603 N.3     1  UNL1       -0.2710
      2 C         143.0306  143.7322  162.1099 C.3     1  UNL1        0.0735
      3 C         141.8190  143.4737  161.2642 C.3     1  UNL1        0.0331
      4 C         140.4578  143.8505  161.7690 C.3     1  UNL1        0.0570
      5 C         140.3080  144.4860  163.1195 C.3     1  UNL1        0.0331
      6 C         141.5196  144.7445  163.9651 C.3     1  UNL1        0.0735
      7 N         139.2461  143.5920  160.9233 N.3     1  UNL1       -0.2934
      8 H         139.5645  143.0776  160.1021 H       1  UNL1        0.1236
      9 C         138.0854  142.8288  161.4892 C.3     1  UNL1        0.1152
     10 C         138.3149  141.5151  162.1759 C.ar    1  UNL1        0.0765
     11 C         138.9617  140.3836  161.4334 C.ar    1  UNL1        0.0193
     12 C         139.1911  139.0699  162.1200 C.ar    1  UNL1        0.0411
     13 C         138.7738  138.8877  163.5493 C.ar    1  UNL1        0.1708
     14 C         138.1270  140.0192  164.2918 C.ar    1  UNL1        0.1682
     15 N         137.8975  141.3329  163.6051 N.ar    1  UNL1       -0.2304
     16 N         137.7096  139.8370  165.7210 N.am    1  UNL1       -0.2639
     17 C         137.9391  138.5233  166.4077 C.2     1  UNL1        0.2718
     18 O         137.5217  138.3411  167.8369 O.2     1  UNL1       -0.2707
     19 C         138.5859  137.3918  165.6651 C.3     1  UNL1        0.2898
     20 O         139.0032  137.5740  164.2359 O.3     1  UNL1       -0.4628
     21 H         137.2851  140.5797  166.2083 H       1  UNL1        0.1565
     22 C         144.0925  144.6261  164.3061 C.3     1  UNL1        0.0970
     23 C         144.6449  143.5375  165.1777 C.3     1  UNL1        0.1278
     24 C         141.2558  141.8780  167.6293 C.ar    1  UNL1        0.2263
     25 C         140.8107  140.4595  167.4304 C.ar    1  UNL1        0.0578
     26 C         141.4953  139.5941  166.4143 C.ar    1  UNL1        0.0078
     27 C         142.6250  140.1472  165.5971 C.ar    1  UNL1        0.0346
     28 C         143.3096  139.2818  164.5810 C.ar    1  UNL1        0.0079
     29 C         144.4392  139.8350  163.7638 C.ar    1  UNL1        0.0609
     30 C         144.8844  141.2536  163.9627 C.ar    1  UNL1        0.2621
     31 O         146.0140  141.8068  163.1455 O.2     1  UNL1       -0.2669
     32 N         144.1998  142.1190  164.9788 N.ar    1  UNL1       -0.2791
     33 C         143.0700  141.5658  165.7960 C.ar    1  UNL1        0.1491
     34 N         142.3855  142.4311  166.8121 N.ar    1  UNL1       -0.1942
     35 C         140.0796  142.1457  169.9303 C.3     1  UNL1        0.2542
     36 O         140.5712  142.7434  168.6454 O.3     1  UNL1       -0.4561
@<TRIPOS>BOND
     1    35    36    1
     2    36    24    1
     3    24    25   ar
     4    25    26   ar
     5    26    27   ar
     6    27    28   ar
     7    28    29   ar
     8    29    30   ar
     9    30    31    2
    10    30    32   ar
    11    32    23    1
    12    23    22    1
    13    22     1    1
    14     1     2    1
    15     2     3    1
    16     3     4    1
    17     4     7    1
    18     7     9    1
    19     9    10    1
    20    10    11   ar
    21    11    12   ar
    22    12    13   ar
    23    13    14   ar
    24    14    15   ar
    25    14    16    1
    26    16    17   am
    27    17    18    2
    28    17    19    1
    29    19    20    1
    30     4     5    1
    31     5     6    1
    32    32    33   ar
    33    33    34   ar
    34    34    24   ar
    35    33    27   ar
    36     6     1    1
    37    15    10   ar
    38    20    13    1
    39     7     8    1
    40    16    21    1
@<TRIPOS>MOLECULE
*****
 36 40 0 0 0
SMALL
GASTEIGER

@<TRIPOS>ATOM
      1 N         143.7082  141.9323  164.0006 N.3     1  UNL1       -0.2710
      2 C         143.9377  142.6597  162.7091 C.3     1  UNL1        0.0735
      3 C         143.2086  143.9405  162.4299 C.3     1  UNL1        0.0331
      4 C         142.2500  144.4938  163.4422 C.3     1  UNL1        0.0570
      5 C         142.0205  143.7663  164.7338 C.3     1  UNL1        0.0331
      6 C         142.7496  142.4855  165.0130 C.3     1  UNL1        0.0735
      7 N         141.5208  145.7746  163.1631 N.3     1  UNL1       -0.2934
      8 H         142.1722  146.3820  162.6659 H       1  UNL1        0.1236
      9 C         140.2510  145.7561  162.3648 C.3     1  UNL1        0.1152
     10 C         139.4851  144.4765  162.2035 C.ar    1  UNL1        0.0765
     11 C         138.4552  144.0854  163.2214 C.ar    1  UNL1        0.0193
     12 C         137.6893  142.8057  163.0601 C.ar    1  UNL1        0.0411
     13 C         137.9534  141.9172  161.8808 C.ar    1  UNL1        0.1708
     14 C         138.9834  142.3083  160.8629 C.ar    1  UNL1        0.1682
     15 N         139.7493  143.5879  161.0242 N.ar    1  UNL1       -0.2304
     16 N         139.2476  141.4197  159.6836 N.am    1  UNL1       -0.2639
     17 C         138.4817  140.1401  159.5223 C.2     1  UNL1        0.2718
     18 O         138.7458  139.2515  158.3430 O.2     1  UNL1       -0.2707
     19 C         137.4517  139.7490  160.5402 C.3     1  UNL1        0.2898
     20 O         137.1876  140.6376  161.7195 O.3     1  UNL1       -0.4628
     21 H         139.9236  141.6764  159.0155 H       1  UNL1        0.1565
     22 C         144.4373  140.6514  164.2798 C.3     1  UNL1        0.0970
     23 C         143.6889  139.4606  164.8011 C.3     1  UNL1        0.1278
     24 C         139.6378  139.7648  166.7365 C.ar    1  UNL1        0.2263
     25 C         138.4216  139.2675  166.0128 C.ar    1  UNL1        0.0578
     26 C         138.5559  138.6690  164.6440 C.ar    1  UNL1        0.0078
     27 C         139.9062  138.5676  163.9989 C.ar    1  UNL1        0.0346
     28 C         140.0404  137.9690  162.6301 C.ar    1  UNL1        0.0079
     29 C         141.3908  137.8676  161.9849 C.ar    1  UNL1        0.0609
     30 C         142.6070  138.3648  162.7086 C.ar    1  UNL1        0.2621
     31 O         143.9573  138.2634  162.0635 O.2     1  UNL1       -0.2669
     32 N         142.4728  138.9634  164.0774 N.ar    1  UNL1       -0.2791
     33 C         141.1223  139.0648  164.7226 C.ar    1  UNL1        0.1491
     34 N         140.9881  139.6634  166.0914 N.ar    1  UNL1       -0.1942
     35 C         140.5635  140.1188  169.1381 C.3     1  UNL1        0.2542
     36 O         139.5035  140.3633  168.1054 O.3     1  UNL1       -0.4561
@<TRIPOS>BOND
     1    35    36    1
     2    36    24    1
     3    24    25   ar
     4    25    26   ar
     5    26    27   ar
     6    27    28   ar
     7    28    29   ar
     8    29    30   ar
     9    30    31    2
    10    30    32   ar
    11    32    23    1
    12    23    22    1
    13    22     1    1
    14     1     2    1
    15     2     3    1
    16     3     4    1
    17     4     7    1
    18     7     9    1
    19     9    10    1
    20    10    11   ar
    21    11    12   ar
    22    12    13   ar
    23    13    14   ar
    24    14    15   ar
    25    14    16    1
    26    16    17   am
    27    17    18    2
    28    17    19    1
    29    19    20    1
    30     4     5    1
    31     5     6    1
    32    32    33   ar
    33    33    34   ar
    34    34    24   ar
    35    33    27   ar
    36     6     1    1
    37    15    10   ar
    38    20    13    1
    39     7     8    1
    40    16    21    1
@<TRIPOS>MOLECULE
*****
 36 40 0 0 0
SMALL
GASTEIGER

@<TRIPOS>ATOM
      1 N         138.3151  140.3011  163.6209 N.3     1  UNL1       -0.2710
      2 C         138.1510  141.3477  164.6828 C.3     1  UNL1        0.0735
      3 C         137.9513  142.7833  164.2965 C.3     1  UNL1        0.0331
      4 C         137.9156  143.1722  162.8482 C.3     1  UNL1        0.0570
      5 C         138.0797  142.1255  161.7863 C.3     1  UNL1        0.0331
      6 C         138.2794  140.6900  162.1727 C.3     1  UNL1        0.0735
      7 N         137.7158  144.6078  162.4618 N.3     1  UNL1       -0.2934
      8 H         137.0623  145.0060  163.1361 H       1  UNL1        0.1236
      9 C         138.8912  145.5375  162.3968 C.3     1  UNL1        0.1152
     10 C         140.2844  144.9833  162.3540 C.ar    1  UNL1        0.0765
     11 C         141.1664  145.0774  163.5636 C.ar    1  UNL1        0.0193
     12 C         142.5597  144.5232  163.5208 C.ar    1  UNL1        0.0411
     13 C         143.0708  143.8749  162.2684 C.ar    1  UNL1        0.1708
     14 C         142.1886  143.7807  161.0588 C.ar    1  UNL1        0.1682
     15 N         140.7955  144.3349  161.1017 N.ar    1  UNL1       -0.2304
     16 N         142.6997  143.1324  159.8065 N.am    1  UNL1       -0.2639
     17 C         144.0930  142.5782  159.7637 C.2     1  UNL1        0.2718
     18 O         144.6041  141.9298  158.5113 O.2     1  UNL1       -0.2707
     19 C         144.9751  142.6723  160.9732 C.3     1  UNL1        0.2898
     20 O         144.4640  143.3207  162.2256 O.3     1  UNL1       -0.4628
     21 H         142.1208  143.0706  159.0126 H       1  UNL1        0.1565
     22 C         138.5149  138.8655  164.0073 C.3     1  UNL1        0.0970
     23 C         139.7436  138.4566  164.7642 C.3     1  UNL1        0.1278
     24 C         141.8899  141.8042  166.8706 C.ar    1  UNL1        0.2263
     25 C         143.2436  142.2429  166.3963 C.ar    1  UNL1        0.0578
     26 C         143.8819  141.5657  165.2199 C.ar    1  UNL1        0.0078
     27 C         143.1665  140.4498  164.5178 C.ar    1  UNL1        0.0346
     28 C         143.8048  139.7726  163.3414 C.ar    1  UNL1        0.0079
     29 C         143.0895  138.6567  162.6392 C.ar    1  UNL1        0.0609
     30 C         141.7357  138.2180  163.1135 C.ar    1  UNL1        0.2621
     31 O         141.0203  137.1022  162.4114 O.2     1  UNL1       -0.2669
     32 N         141.0973  138.8952  164.2899 N.ar    1  UNL1       -0.2791
     33 C         141.8128  140.0111  164.9921 C.ar    1  UNL1        0.1491
     34 N         141.1745  140.6883  166.1685 N.ar    1  UNL1       -0.1942
     35 C         142.0184  142.6439  169.3259 C.3     1  UNL1        0.2542
     36 O         141.2516  142.4814  168.0470 O.3     1  UNL1       -0.4561
@<TRIPOS>BOND
     1    35    36    1
     2    36    24    1
     3    24    25   ar
     4    25    26   ar
     5    26    27   ar
     6    27    28   ar
     7    28    29   ar
     8    29    30   ar
     9    30    31    2
    10    30    32   ar
    11    32    23    1
    12    23    22    1
    13    22     1    1
    14     1     2    1
    15     2     3    1
    16     3     4    1
    17     4     7    1
    18     7     9    1
    19     9    10    1
    20    10    11   ar
    21    11    12   ar
    22    12    13   ar
    23    13    14   ar
    24    14    15   ar
    25    14    16    1
    26    16    17   am
    27    17    18    2
    28    17    19    1
    29    19    20    1
    30     4     5    1
    31     5     6    1
    32    32    33   ar
    33    33    34   ar
    34    34    24   ar
    35    33    27   ar
    36     6     1    1
    37    15    10   ar
    38    20    13    1
    39     7     8    1
    40    16    21    1
@<TRIPOS>MOLECULE
*****
 36 40 0 0 0
SMALL
GASTEIGER

@<TRIPOS>ATOM
      1 N         142.8096  143.4987  161.5980 N.3     1  UNL1       -0.2710
      2 C         143.1472  144.3319  162.7988 C.3     1  UNL1        0.0735
      3 C         142.0503  144.9232  163.6337 C.3     1  UNL1        0.0331
      4 C         140.6159  144.6815  163.2679 C.3     1  UNL1        0.0570
      5 C         140.2783  143.8483  162.0671 C.3     1  UNL1        0.0331
      6 C         141.3751  143.2570  161.2321 C.3     1  UNL1        0.0735
      7 N         139.5190  145.2728  164.1029 N.3     1  UNL1       -0.2934
      8 H         138.7975  145.5934  163.4570 H       1  UNL1        0.1236
      9 C         138.8309  144.4351  165.1396 C.3     1  UNL1        0.1152
     10 C         139.4762  143.1748  165.6347 C.ar    1  UNL1        0.0765
     11 C         139.1715  141.8651  164.9701 C.ar    1  UNL1        0.0193
     12 C         139.8169  140.6048  165.4652 C.ar    1  UNL1        0.0411
     13 C         140.7669  140.6542  166.6249 C.ar    1  UNL1        0.1708
     14 C         141.0716  141.9640  167.2895 C.ar    1  UNL1        0.1682
     15 N         140.4263  143.2243  166.7944 N.ar    1  UNL1       -0.2304
     16 N         142.0217  142.0134  168.4492 N.am    1  UNL1       -0.2639
     17 C         142.6670  140.7531  168.9443 C.2     1  UNL1        0.2718
     18 O         143.6171  140.8025  170.1041 O.2     1  UNL1       -0.2707
     19 C         142.3623  139.4434  168.2797 C.3     1  UNL1        0.2898
     20 O         141.4123  139.3939  167.1200 O.3     1  UNL1       -0.4628
     21 H         142.2217  142.8731  168.8854 H       1  UNL1        0.1565
     22 C         143.9065  142.9074  160.7630 C.3     1  UNL1        0.0970
     23 C         144.1118  141.4217  160.7376 C.3     1  UNL1        0.1278
     24 C         140.7001  138.5350  161.2639 C.ar    1  UNL1        0.2263
     25 C         140.5793  137.7394  162.5298 C.ar    1  UNL1        0.0578
     26 C         141.5958  137.9060  163.6202 C.ar    1  UNL1        0.0078
     27 C         142.7330  138.8683  163.4448 C.ar    1  UNL1        0.0346
     28 C         143.7495  139.0349  164.5352 C.ar    1  UNL1        0.0079
     29 C         144.8867  139.9971  164.3598 C.ar    1  UNL1        0.0609
     30 C         145.0075  140.7928  163.0939 C.ar    1  UNL1        0.2621
     31 O         146.1447  141.7550  162.9184 O.2     1  UNL1       -0.2669
     32 N         143.9910  140.6261  162.0034 N.ar    1  UNL1       -0.2791
     33 C         142.8538  139.6638  162.1789 C.ar    1  UNL1        0.1491
     34 N         141.8373  139.4972  161.0885 N.ar    1  UNL1       -0.1942
     35 C         140.0915  138.5214  158.7382 C.3     1  UNL1        0.2542
     36 O         139.6836  138.3683  160.1735 O.3     1  UNL1       -0.4561
@<TRIPOS>BOND
     1    35    36    1
     2    36    24    1
     3    24    25   ar
     4    25    26   ar
     5    26    27   ar
     6    27    28   ar
     7    28    29   ar
     8    29    30   ar
     9    30    31    2
    10    30    32   ar
    11    32    23    1
    12    23    22    1
    13    22     1    1
    14     1     2    1
    15     2     3    1
    16     3     4    1
    17     4     7    1
    18     7     9    1
    19     9    10    1
    20    10    11   ar
    21    11    12   ar
    22    12    13   ar
    23    13    14   ar
    24    14    15   ar
    25    14    16    1
    26    16    17   am
    27    17    18    2
    28    17    19    1
    29    19    20    1
    30     4     5    1
    31     5     6    1
    32    32    33   ar
    33    33    34   ar
    34    34    24   ar
    35    33    27   ar
    36     6     1    1
    37    15    10   ar
    38    20    13    1
    39     7     8    1
    40    16    21    1
@<TRIPOS>MOLECULE
*****
 36 40 0 0 0
SMALL
GASTEIGER

@<TRIPOS>ATOM
      1 N         138.9746  143.2859  162.5507 N.3     1  UNL1       -0.2710
      2 C         139.5915  143.7282  163.8445 C.3     1  UNL1        0.0735
      3 C         140.9373  144.3904  163.8460 C.3     1  UNL1        0.0331
      4 C         141.6663  144.6104  162.5537 C.3     1  UNL1        0.0570
      5 C         141.0495  144.1681  161.2599 C.3     1  UNL1        0.0331
      6 C         139.7036  143.5059  161.2584 C.3     1  UNL1        0.0735
      7 N         143.0123  145.2727  162.5551 N.3     1  UNL1       -0.2934
      8 H         142.9693  146.0255  163.2420 H       1  UNL1        0.1236
      9 C         144.2418  144.4719  162.8667 C.3     1  UNL1        0.1152
     10 C         144.2048  142.9751  162.7765 C.ar    1  UNL1        0.0765
     11 C         144.4821  142.1434  163.9936 C.ar    1  UNL1        0.0193
     12 C         144.4451  140.6465  163.9035 C.ar    1  UNL1        0.0411
     13 C         144.1309  139.9814  162.5962 C.ar    1  UNL1        0.1708
     14 C         143.8537  140.8132  161.3791 C.ar    1  UNL1        0.1682
     15 N         143.8906  142.3100  161.4692 N.ar    1  UNL1       -0.2304
     16 N         143.5394  140.1481  160.0718 N.am    1  UNL1       -0.2639
     17 C         143.5025  138.6512  159.9817 C.2     1  UNL1        0.2718
     18 O         143.1883  137.9862  158.6744 O.2     1  UNL1       -0.2707
     19 C         143.7797  137.8195  161.1988 C.3     1  UNL1        0.2898
     20 O         144.0939  138.4846  162.5060 O.3     1  UNL1       -0.4628
     21 H         143.3575  140.6940  159.2730 H       1  UNL1        0.1565
     22 C         137.6287  142.6236  162.5492 C.3     1  UNL1        0.0970
     23 C         137.4405  141.3060  163.2408 C.3     1  UNL1        0.1278
     24 C         140.6170  140.2429  166.2457 C.ar    1  UNL1        0.2263
     25 C         141.5606  139.1099  165.9705 C.ar    1  UNL1        0.0578
     26 C         141.4454  138.3312  164.6936 C.ar    1  UNL1        0.0078
     27 C         140.3866  138.6855  163.6920 C.ar    1  UNL1        0.0346
     28 C         140.2714  137.9069  162.4151 C.ar    1  UNL1        0.0079
     29 C         139.2126  138.2612  161.4135 C.ar    1  UNL1        0.0609
     30 C         138.2689  139.3943  161.6887 C.ar    1  UNL1        0.2621
     31 O         137.2101  139.7486  160.6871 O.2     1  UNL1       -0.2669
     32 N         138.3841  140.1729  162.9656 N.ar    1  UNL1       -0.2791
     33 C         139.4430  139.8185  163.9672 C.ar    1  UNL1        0.1491
     34 N         139.5582  140.5972  165.2441 N.ar    1  UNL1       -0.1942
     35 C         140.7206  142.5211  167.4902 C.3     1  UNL1        0.2542
     36 O         140.7322  141.0215  167.5226 O.3     1  UNL1       -0.4561
@<TRIPOS>BOND
     1    35    36    1
     2    36    24    1
     3    24    25   ar
     4    25    26   ar
     5    26    27   ar
     6    27    28   ar
     7    28    29   ar
     8    29    30   ar
     9    30    31    2
    10    30    32   ar
    11    32    23    1
    12    23    22    1
    13    22     1    1
    14     1     2    1
    15     2     3    1
    16     3     4    1
    17     4     7    1
    18     7     9    1
    19     9    10    1
    20    10    11   ar
    21    11    12   ar
    22    12    13   ar
    23    13    14   ar
    24    14    15   ar
    25    14    16    1
    26    16    17   am
    27    17    18    2
    28    17    19    1
    29    19    20    1
    30     4     5    1
    31     5     6    1
    32    32    33   ar
    33    33    34   ar
    34    34    24   ar
    35    33    27   ar
    36     6     1    1
    37    15    10   ar
    38    20    13    1
    39     7     8    1
    40    16    21    1
@<TRIPOS>MOLECULE
*****
 36 40 0 0 0
SMALL
GASTEIGER

@<TRIPOS>ATOM
      1 N         138.1287  140.3044  162.0044 N.3     1  UNL1       -0.2710
      2 C         139.1601  141.0632  161.2231 C.3     1  UNL1        0.0735
      3 C         139.4693  142.4881  161.5754 C.3     1  UNL1        0.0331
      4 C         138.7471  143.1541  162.7089 C.3     1  UNL1        0.0570
      5 C         137.7158  142.3952  163.4902 C.3     1  UNL1        0.0331
      6 C         137.4066  140.9703  163.1379 C.3     1  UNL1        0.0735
      7 N         139.0563  144.5790  163.0612 N.3     1  UNL1       -0.2934
      8 H         138.1624  145.0649  163.1342 H       1  UNL1        0.1236
      9 C         139.8231  144.8930  164.3116 C.3     1  UNL1        0.1152
     10 C         140.5862  143.8102  165.0153 C.ar    1  UNL1        0.0765
     11 C         141.9495  143.4162  164.5293 C.ar    1  UNL1        0.0193
     12 C         142.7126  142.3333  165.2330 C.ar    1  UNL1        0.0411
     13 C         142.1124  141.6445  166.4226 C.ar    1  UNL1        0.1708
     14 C         140.7490  142.0385  166.9086 C.ar    1  UNL1        0.1682
     15 N         139.9860  143.1213  166.2049 N.ar    1  UNL1       -0.2304
     16 N         140.1488  141.3496  168.0982 N.am    1  UNL1       -0.2639
     17 C         140.9119  140.2668  168.8019 C.2     1  UNL1        0.2718
     18 O         140.3117  139.5779  169.9915 O.2     1  UNL1       -0.2707
     19 C         142.2752  139.8728  168.3159 C.3     1  UNL1        0.2898
     20 O         142.8755  140.5617  167.1263 O.3     1  UNL1       -0.4628
     21 H         139.2540  141.6082  168.4172 H       1  UNL1        0.1565
     22 C         137.8195  138.8794  161.6521 C.3     1  UNL1        0.0970
     23 C         138.8963  137.8378  161.7269 C.3     1  UNL1        0.1278
     24 C         143.0031  138.4545  159.9939 C.ar    1  UNL1        0.2263
     25 C         144.1787  138.6550  160.9037 C.ar    1  UNL1        0.0578
     26 C         143.9853  138.6500  162.3911 C.ar    1  UNL1        0.0078
     27 C         142.6164  138.4444  162.9688 C.ar    1  UNL1        0.0346
     28 C         142.4231  138.4394  164.4563 C.ar    1  UNL1        0.0079
     29 C         141.0542  138.2338  165.0340 C.ar    1  UNL1        0.0609
     30 C         139.8785  138.0333  164.1242 C.ar    1  UNL1        0.2621
     31 O         138.5096  137.8277  164.7019 O.2     1  UNL1       -0.2669
     32 N         140.0718  138.0383  162.6367 N.ar    1  UNL1       -0.2791
     33 C         141.4409  138.2439  162.0590 C.ar    1  UNL1        0.1491
     34 N         141.6342  138.2489  160.5716 N.ar    1  UNL1       -0.1942
     35 C         142.6634  137.3291  157.6770 C.3     1  UNL1        0.2542
     36 O         143.1964  138.4596  158.5064 O.3     1  UNL1       -0.4561
@<TRIPOS>BOND
     1    35    36    1
     2    36    24    1
     3    24    25   ar
     4    25    26   ar
     5    26    27   ar
     6    27    28   ar
     7    28    29   ar
     8    29    30   ar
     9    30    31    2
    10    30    32   ar
    11    32    23    1
    12    23    22    1
    13    22     1    1
    14     1     2    1
    15     2     3    1
    16     3     4    1
    17     4     7    1
    18     7     9    1
    19     9    10    1
    20    10    11   ar
    21    11    12   ar
    22    12    13   ar
    23    13    14   ar
    24    14    15   ar
    25    14    16    1
    26    16    17   am
    27    17    18    2
    28    17    19    1
    29    19    20    1
    30     4     5    1
    31     5     6    1
    32    32    33   ar
    33    33    34   ar
    34    34    24   ar
    35    33    27   ar
    36     6     1    1
    37    15    10   ar
    38    20    13    1
    39     7     8    1
    40    16    21    1
