@<TRIPOS>MOLECULE
*****
 26 29 0 0 0
SMALL
GASTEIGER

@<TRIPOS>ATOM
      1 C         141.0100  138.4904  162.1691 C.ar    1  UNL1        0.1917
      2 N         139.8436  137.5804  161.9212 N.ar    1  UNL1       -0.1268
      3 N         139.0244  137.5244  163.1764 N.ar    1  UNL1       -0.1316
      4 C         139.6845  138.3998  164.2002 C.ar    1  UNL1        0.1615
      5 N         140.9117  138.9968  163.5776 N.ar    1  UNL1       -0.2940
      6 C         141.7810  139.9245  164.3736 C.3     1  UNL1        0.1302
      7 C         141.4231  140.2552  165.7923 C.3     1  UNL1        0.1186
      8 N         140.1960  139.6582  166.4149 N.am    1  UNL1       -0.2688
      9 C         139.8381  139.9888  167.8335 C.2     1  UNL1        0.2494
     10 O         138.6109  139.3918  168.4561 O.2     1  UNL1       -0.2699
     11 C         139.3266  138.7305  165.6188 C.3     1  UNL1        0.1343
     12 C         138.0994  138.1335  166.2414 C.3     1  UNL1        0.0298
     13 C         140.7074  140.9164  168.6296 C.ar    1  UNL1        0.0545
     14 C         142.0761  140.4780  169.0592 C.ar    1  UNL1        0.0054
     15 C         142.9454  141.4057  169.8552 C.ar    1  UNL1        0.0124
     16 C         142.4461  142.7718  170.2217 C.ar    1  UNL1        0.0682
     17 CL        143.3154  143.6995  171.0178 Cl      1  UNL1       -0.0814
     18 C         141.0774  143.2103  169.7921 C.ar    1  UNL1        0.0683
     19 CL        140.5781  144.5765  170.1586 Cl      1  UNL1       -0.0814
     20 C         140.2081  142.2827  168.9961 C.ar    1  UNL1        0.0168
     21 C         143.5243  140.4568  157.9629 C.3     1  UNL1        0.0744
     22 C         143.2415  139.7376  159.2485 C.ar    1  UNL1        0.1481
     23 N         144.2414  138.9863  160.0767 N.ar    1  UNL1       -0.1929
     24 S         143.5271  138.4277  161.2717 S.2     1  UNL1        0.0369
     25 C         142.0859  138.8337  161.1818 C.ar    1  UNL1        0.1652
     26 N         141.9094  139.6432  159.9314 N.ar    1  UNL1       -0.2190
@<TRIPOS>BOND
     1    21    22    1
     2    22    23   ar
     3    23    24   ar
     4    24    25   ar
     5    25     1    1
     6     1     2   ar
     7     2     3   ar
     8     3     4   ar
     9     4     5   ar
    10     5     6    1
    11     6     7    1
    12     7     8    1
    13     8     9   am
    14     9    10    2
    15     9    13    1
    16    13    14   ar
    17    14    15   ar
    18    15    16   ar
    19    16    17    1
    20    16    18   ar
    21    18    19    1
    22    18    20   ar
    23     8    11    1
    24    11    12    1
    25    25    26   ar
    26    26    22   ar
    27     5     1   ar
    28    20    13   ar
    29    11     4    1
@<TRIPOS>MOLECULE
*****
 26 29 0 0 0
SMALL
GASTEIGER

@<TRIPOS>ATOM
      1 C         142.8702  143.4670  158.6960 C.ar    1  UNL1        0.1917
      2 N         142.5262  144.7974  158.0946 N.ar    1  UNL1       -0.1268
      3 N         141.6541  145.5342  159.0676 N.ar    1  UNL1       -0.1316
      4 C         141.4592  144.6591  160.2702 C.ar    1  UNL1        0.1615
      5 N         142.2108  143.3815  160.0405 N.ar    1  UNL1       -0.2940
      6 C         142.1976  142.3054  161.0854 C.3     1  UNL1        0.1302
      7 C         141.4328  142.5069  162.3600 C.3     1  UNL1        0.1186
      8 N         140.6812  143.7845  162.5897 N.am    1  UNL1       -0.2688
      9 C         139.9165  143.9860  163.8642 C.2     1  UNL1        0.2494
     10 O         139.1649  145.2637  164.0939 O.2     1  UNL1       -0.2699
     11 C         140.6944  144.8607  161.5448 C.3     1  UNL1        0.1343
     12 C         139.9429  146.1383  161.7744 C.3     1  UNL1        0.0298
     13 C         139.9033  142.9099  164.9091 C.ar    1  UNL1        0.0545
     14 C         140.8214  143.0015  166.0917 C.ar    1  UNL1        0.0054
     15 C         140.8082  141.9253  167.1366 C.ar    1  UNL1        0.0124
     16 C         139.8769  140.7576  166.9988 C.ar    1  UNL1        0.0682
     17 CL        139.8637  139.6814  168.0436 Cl      1  UNL1       -0.0814
     18 C         138.9587  140.6660  165.8161 C.ar    1  UNL1        0.0683
     19 CL        138.0274  139.4982  165.6784 Cl      1  UNL1       -0.0814
     20 C         138.9719  141.7421  164.7713 C.ar    1  UNL1        0.0168
     21 C         146.4869  141.0621  155.6932 C.3     1  UNL1        0.0744
     22 C         145.3862  141.3025  156.6835 C.ar    1  UNL1        0.1481
     23 N         144.6885  140.2538  157.4981 N.ar    1  UNL1       -0.1929
     24 S         143.6611  140.9370  158.3511 S.2     1  UNL1        0.0369
     25 C         143.7238  142.4079  158.0637 C.ar    1  UNL1        0.1652
     26 N         144.7900  142.6338  157.0331 N.ar    1  UNL1       -0.2190
@<TRIPOS>BOND
     1    21    22    1
     2    22    23   ar
     3    23    24   ar
     4    24    25   ar
     5    25     1    1
     6     1     2   ar
     7     2     3   ar
     8     3     4   ar
     9     4     5   ar
    10     5     6    1
    11     6     7    1
    12     7     8    1
    13     8     9   am
    14     9    10    2
    15     9    13    1
    16    13    14   ar
    17    14    15   ar
    18    15    16   ar
    19    16    17    1
    20    16    18   ar
    21    18    19    1
    22    18    20   ar
    23     8    11    1
    24    11    12    1
    25    25    26   ar
    26    26    22   ar
    27     5     1   ar
    28    20    13   ar
    29    11     4    1
@<TRIPOS>MOLECULE
*****
 26 29 0 0 0
SMALL
GASTEIGER

@<TRIPOS>ATOM
      1 C         139.7823  142.2042  160.8430 C.ar    1  UNL1        0.1917
      2 N         138.9073  141.1100  160.3071 N.ar    1  UNL1       -0.1268
      3 N         138.5832  140.1798  161.4382 N.ar    1  UNL1       -0.1316
      4 C         139.2578  140.6990  162.6733 C.ar    1  UNL1        0.1615
      5 N         139.9990  141.9501  162.3054 N.ar    1  UNL1       -0.2940
      6 C         140.7753  142.6965  163.3495 C.3     1  UNL1        0.1302
      7 C         140.8106  142.1916  164.7616 C.3     1  UNL1        0.1186
      8 N         140.0695  140.9405  165.1295 N.am    1  UNL1       -0.2688
      9 C         140.1047  140.4356  166.5415 C.2     1  UNL1        0.2494
     10 O         139.3636  139.1845  166.9094 O.2     1  UNL1       -0.2699
     11 C         139.2931  140.1942  164.0853 C.3     1  UNL1        0.1343
     12 C         138.5520  138.9430  164.4532 C.3     1  UNL1        0.0298
     13 C         140.8811  141.1819  167.5856 C.ar    1  UNL1        0.0545
     14 C         142.2787  140.7576  167.9271 C.ar    1  UNL1        0.0054
     15 C         143.0551  141.5040  168.9713 C.ar    1  UNL1        0.0124
     16 C         142.4338  142.6746  169.6739 C.ar    1  UNL1        0.0682
     17 CL        143.2102  143.4210  170.7181 Cl      1  UNL1       -0.0814
     18 C         141.0362  143.0989  169.3324 C.ar    1  UNL1        0.0683
     19 CL        140.4150  144.2696  170.0351 Cl      1  UNL1       -0.0814
     20 C         140.2598  142.3526  168.2883 C.ar    1  UNL1        0.0168
     21 C         140.2163  146.2386  157.4643 C.3     1  UNL1        0.0744
     22 C         140.5418  145.2054  158.5019 C.ar    1  UNL1        0.1481
     23 N         141.8666  145.0262  159.1824 N.ar    1  UNL1       -0.1929
     24 S         141.7433  143.8801  160.1422 S.2     1  UNL1        0.0369
     25 C         140.3424  143.3510  160.0549 C.ar    1  UNL1        0.1652
     26 N         139.5998  144.1701  159.0411 N.ar    1  UNL1       -0.2190
@<TRIPOS>BOND
     1    21    22    1
     2    22    23   ar
     3    23    24   ar
     4    24    25   ar
     5    25     1    1
     6     1     2   ar
     7     2     3   ar
     8     3     4   ar
     9     4     5   ar
    10     5     6    1
    11     6     7    1
    12     7     8    1
    13     8     9   am
    14     9    10    2
    15     9    13    1
    16    13    14   ar
    17    14    15   ar
    18    15    16   ar
    19    16    17    1
    20    16    18   ar
    21    18    19    1
    22    18    20   ar
    23     8    11    1
    24    11    12    1
    25    25    26   ar
    26    26    22   ar
    27     5     1   ar
    28    20    13   ar
    29    11     4    1
@<TRIPOS>MOLECULE
*****
 26 29 0 0 0
SMALL
GASTEIGER

@<TRIPOS>ATOM
      1 C         142.3845  141.8627  161.2002 C.ar    1  UNL1        0.1917
      2 N         143.3694  140.8674  160.6623 N.ar    1  UNL1       -0.1268
      3 N         143.8566  140.0315  161.8086 N.ar    1  UNL1       -0.1316
      4 C         143.1727  140.5102  163.0549 C.ar    1  UNL1        0.1615
      5 N         142.2629  141.6419  162.6789 N.ar    1  UNL1       -0.2940
      6 C         141.4413  142.3252  163.7315 C.3     1  UNL1        0.1302
      7 C         141.5295  141.8768  165.1602 C.3     1  UNL1        0.1186
      8 N         142.4393  140.7451  165.5363 N.am    1  UNL1       -0.2688
      9 C         142.5275  140.2966  166.9649 C.2     1  UNL1        0.2494
     10 O         143.4374  139.1649  167.3409 O.2     1  UNL1       -0.2699
     11 C         143.2610  140.0618  164.4836 C.3     1  UNL1        0.1343
     12 C         144.1708  138.9300  164.8596 C.3     1  UNL1        0.0298
     13 C         141.7059  140.9799  168.0175 C.ar    1  UNL1        0.0545
     14 C         142.1262  142.3199  168.5445 C.ar    1  UNL1        0.0054
     15 C         141.3045  143.0032  169.5971 C.ar    1  UNL1        0.0124
     16 C         140.0626  142.3465  170.1228 C.ar    1  UNL1        0.0682
     17 CL        139.2410  143.0298  171.1754 Cl      1  UNL1       -0.0814
     18 C         139.6424  141.0065  169.5958 C.ar    1  UNL1        0.0683
     19 CL        138.4004  140.3497  170.1216 Cl      1  UNL1       -0.0814
     20 C         140.4640  140.3232  168.5432 C.ar    1  UNL1        0.0168
     21 C         141.3483  145.9528  158.0256 C.3     1  UNL1        0.0744
     22 C         141.1738  144.7771  158.9407 C.ar    1  UNL1        0.1481
     23 N         139.8658  144.2008  159.3959 N.ar    1  UNL1       -0.1929
     24 S         140.1602  143.0388  160.2978 S.2     1  UNL1        0.0369
     25 C         141.6500  142.8971  160.3999 C.ar    1  UNL1        0.1652
     26 N         142.2764  143.9714  159.5611 N.ar    1  UNL1       -0.2190
@<TRIPOS>BOND
     1    21    22    1
     2    22    23   ar
     3    23    24   ar
     4    24    25   ar
     5    25     1    1
     6     1     2   ar
     7     2     3   ar
     8     3     4   ar
     9     4     5   ar
    10     5     6    1
    11     6     7    1
    12     7     8    1
    13     8     9   am
    14     9    10    2
    15     9    13    1
    16    13    14   ar
    17    14    15   ar
    18    15    16   ar
    19    16    17    1
    20    16    18   ar
    21    18    19    1
    22    18    20   ar
    23     8    11    1
    24    11    12    1
    25    25    26   ar
    26    26    22   ar
    27     5     1   ar
    28    20    13   ar
    29    11     4    1
@<TRIPOS>MOLECULE
*****
 26 29 0 0 0
SMALL
GASTEIGER

@<TRIPOS>ATOM
      1 C         141.2920  140.6300  160.7165 C.ar    1  UNL1        0.1917
      2 N         140.2895  139.6368  160.2081 N.ar    1  UNL1       -0.1268
      3 N         139.5665  139.0617  161.3898 N.ar    1  UNL1       -0.1316
      4 C         140.1222  139.6995  162.6286 C.ar    1  UNL1        0.1615
      5 N         141.1886  140.6688  162.2124 N.ar    1  UNL1       -0.2940
      6 C         141.9277  141.4615  163.2493 C.3     1  UNL1        0.1302
      7 C         141.6004  141.2849  164.7026 C.3     1  UNL1        0.1186
      8 N         140.5340  140.3156  165.1187 N.am    1  UNL1       -0.2688
      9 C         140.2067  140.1390  166.5719 C.2     1  UNL1        0.2494
     10 O         139.1403  139.1697  166.9880 O.2     1  UNL1       -0.2699
     11 C         139.7949  139.5229  164.0817 C.3     1  UNL1        0.1343
     12 C         138.7284  138.5536  164.4979 C.3     1  UNL1        0.0298
     13 C         140.9458  140.9316  167.6088 C.ar    1  UNL1        0.0545
     14 C         142.3130  140.4995  168.0496 C.ar    1  UNL1        0.0054
     15 C         143.0521  141.2923  169.0866 C.ar    1  UNL1        0.0124
     16 C         142.4241  142.5170  169.6828 C.ar    1  UNL1        0.0682
     17 CL        143.1632  143.3098  170.7198 Cl      1  UNL1       -0.0814
     18 C         141.0570  142.9491  169.2421 C.ar    1  UNL1        0.0683
     19 CL        140.4290  144.1740  169.8384 Cl      1  UNL1       -0.0814
     20 C         140.3178  142.1565  168.2051 C.ar    1  UNL1        0.0168
     21 C         145.3220  142.0095  157.5961 C.3     1  UNL1        0.0744
     22 C         144.0852  142.0760  158.4421 C.ar    1  UNL1        0.1481
     23 N         143.2758  143.3068  158.7252 N.ar    1  UNL1       -0.1929
     24 S         142.1309  142.9149  159.6117 S.2     1  UNL1        0.0369
     25 C         142.2328  141.4420  159.8764 C.ar    1  UNL1        0.1652
     26 N         143.4405  140.9235  159.1536 N.ar    1  UNL1       -0.2190
@<TRIPOS>BOND
     1    21    22    1
     2    22    23   ar
     3    23    24   ar
     4    24    25   ar
     5    25     1    1
     6     1     2   ar
     7     2     3   ar
     8     3     4   ar
     9     4     5   ar
    10     5     6    1
    11     6     7    1
    12     7     8    1
    13     8     9   am
    14     9    10    2
    15     9    13    1
    16    13    14   ar
    17    14    15   ar
    18    15    16   ar
    19    16    17    1
    20    16    18   ar
    21    18    19    1
    22    18    20   ar
    23     8    11    1
    24    11    12    1
    25    25    26   ar
    26    26    22   ar
    27     5     1   ar
    28    20    13   ar
    29    11     4    1
@<TRIPOS>MOLECULE
*****
 26 29 0 0 0
SMALL
GASTEIGER

@<TRIPOS>ATOM
      1 C         139.2818  139.7839  167.4595 C.ar    1  UNL1        0.1917
      2 N         138.1918  138.7581  167.5576 N.ar    1  UNL1       -0.1268
      3 N         137.9941  138.1602  166.1962 N.ar    1  UNL1       -0.1316
      4 C         138.9620  138.8164  165.2567 C.ar    1  UNL1        0.1615
      5 N         139.7578  139.8199  166.0375 N.ar    1  UNL1       -0.2940
      6 C         140.8131  140.6368  165.3527 C.3     1  UNL1        0.1302
      7 C         141.0727  140.4503  163.8871 C.3     1  UNL1        0.1186
      8 N         140.2768  139.4468  163.1063 N.am    1  UNL1       -0.2688
      9 C         140.5363  139.2602  161.6408 C.2     1  UNL1        0.2494
     10 O         139.7404  138.2567  160.8600 O.2     1  UNL1       -0.2699
     11 C         139.2215  138.6298  163.7912 C.3     1  UNL1        0.1343
     12 C         138.4256  137.6263  163.0104 C.3     1  UNL1        0.0298
     13 C         141.5916  140.0771  160.9561 C.ar    1  UNL1        0.0545
     14 C         142.9764  139.5254  160.7891 C.ar    1  UNL1        0.0054
     15 C         144.0317  140.3424  160.1043 C.ar    1  UNL1        0.0124
     16 C         143.7022  141.7110  159.5865 C.ar    1  UNL1        0.0682
     17 CL        144.7575  142.5280  158.9017 Cl      1  UNL1       -0.0814
     18 C         142.3174  142.2627  159.7534 C.ar    1  UNL1        0.0683
     19 CL        141.9879  143.6315  159.2355 Cl      1  UNL1       -0.0814
     20 C         141.2621  141.4458  160.4382 C.ar    1  UNL1        0.0168
     21 C         142.1747  143.2155  170.2409 C.3     1  UNL1        0.0744
     22 C         141.1339  142.2032  169.8641 C.ar    1  UNL1        0.1481
     23 N         140.0821  141.6398  170.7732 N.ar    1  UNL1       -0.1929
     24 S         139.2603  140.6649  169.9831 S.2     1  UNL1        0.0369
     25 C         139.8042  140.6258  168.5857 C.ar    1  UNL1        0.1652
     26 N         140.9621  141.5765  168.5122 N.ar    1  UNL1       -0.2190
@<TRIPOS>BOND
     1    21    22    1
     2    22    23   ar
     3    23    24   ar
     4    24    25   ar
     5    25     1    1
     6     1     2   ar
     7     2     3   ar
     8     3     4   ar
     9     4     5   ar
    10     5     6    1
    11     6     7    1
    12     7     8    1
    13     8     9   am
    14     9    10    2
    15     9    13    1
    16    13    14   ar
    17    14    15   ar
    18    15    16   ar
    19    16    17    1
    20    16    18   ar
    21    18    19    1
    22    18    20   ar
    23     8    11    1
    24    11    12    1
    25    25    26   ar
    26    26    22   ar
    27     5     1   ar
    28    20    13   ar
    29    11     4    1
@<TRIPOS>MOLECULE
*****
 26 29 0 0 0
SMALL
GASTEIGER

@<TRIPOS>ATOM
      1 C         138.8502  140.0785  156.6141 C.ar    1  UNL1        0.1917
      2 N         139.9948  139.6859  155.7278 N.ar    1  UNL1       -0.1268
      3 N         141.0682  139.0935  156.5921 N.ar    1  UNL1       -0.1316
      4 C         140.5869  139.1200  158.0125 C.ar    1  UNL1        0.1615
      5 N         139.2161  139.7288  158.0261 N.ar    1  UNL1       -0.2940
      6 C         138.4781  139.8861  159.3225 C.3     1  UNL1        0.1302
      7 C         139.1110  139.4346  160.6054 C.3     1  UNL1        0.1186
      8 N         140.4818  138.8257  160.5918 N.am    1  UNL1       -0.2688
      9 C         141.1147  138.3742  161.8745 C.2     1  UNL1        0.2494
     10 O         142.4855  137.7654  161.8609 O.2     1  UNL1       -0.2699
     11 C         141.2198  138.6685  159.2953 C.3     1  UNL1        0.1343
     12 C         142.5906  138.0596  159.2817 C.3     1  UNL1        0.0298
     13 C         140.3767  138.5315  163.1709 C.ar    1  UNL1        0.0545
     14 C         139.6070  137.3769  163.7406 C.ar    1  UNL1        0.0054
     15 C         138.8690  137.5343  165.0371 C.ar    1  UNL1        0.0124
     16 C         138.9008  138.8461  165.7637 C.ar    1  UNL1        0.0682
     17 CL        138.1628  139.0034  167.0602 Cl      1  UNL1       -0.0814
     18 C         139.6706  140.0006  165.1940 C.ar    1  UNL1        0.0683
     19 CL        139.7023  141.3125  165.9208 Cl      1  UNL1       -0.0814
     20 C         140.4085  139.8433  163.8977 C.ar    1  UNL1        0.0168
     21 C         133.7644  140.7868  155.3838 C.3     1  UNL1        0.0744
     22 C         135.2275  141.0356  155.6014 C.ar    1  UNL1        0.1481
     23 N         135.9480  142.3282  155.3561 N.ar    1  UNL1       -0.1929
     24 S         137.3929  142.1269  155.7056 S.2     1  UNL1        0.0369
     25 C         137.5652  140.7101  156.1669 C.ar    1  UNL1        0.1652
     26 N         136.2269  140.0356  156.1025 N.ar    1  UNL1       -0.2190
@<TRIPOS>BOND
     1    21    22    1
     2    22    23   ar
     3    23    24   ar
     4    24    25   ar
     5    25     1    1
     6     1     2   ar
     7     2     3   ar
     8     3     4   ar
     9     4     5   ar
    10     5     6    1
    11     6     7    1
    12     7     8    1
    13     8     9   am
    14     9    10    2
    15     9    13    1
    16    13    14   ar
    17    14    15   ar
    18    15    16   ar
    19    16    17    1
    20    16    18   ar
    21    18    19    1
    22    18    20   ar
    23     8    11    1
    24    11    12    1
    25    25    26   ar
    26    26    22   ar
    27     5     1   ar
    28    20    13   ar
    29    11     4    1
@<TRIPOS>MOLECULE
*****
 26 29 0 0 0
SMALL
GASTEIGER

@<TRIPOS>ATOM
      1 C         142.7973  137.4426  156.5804 C.ar    1  UNL1        0.1917
      2 N         142.9852  138.4966  155.5297 N.ar    1  UNL1       -0.1268
      3 N         143.2549  139.7991  156.2230 N.ar    1  UNL1       -0.1316
      4 C         143.2337  139.5502  157.7020 C.ar    1  UNL1        0.1615
      5 N         142.9509  138.0938  157.9229 N.ar    1  UNL1       -0.2940
      6 C         142.8698  137.5487  159.3180 C.3     1  UNL1        0.1302
      7 C         143.0714  138.4600  160.4923 C.3     1  UNL1        0.1186
      8 N         143.3542  139.9165  160.2714 N.am    1  UNL1       -0.2688
      9 C         143.5559  140.8278  161.4455 C.2     1  UNL1        0.2494
     10 O         143.8387  142.2843  161.2246 O.2     1  UNL1       -0.2699
     11 C         143.4354  140.4616  158.8762 C.3     1  UNL1        0.1343
     12 C         143.7182  141.9180  158.6553 C.3     1  UNL1        0.0298
     13 C         143.4748  140.2827  162.8406 C.ar    1  UNL1        0.0545
     14 C         144.7219  139.8392  163.5462 C.ar    1  UNL1        0.0054
     15 C         144.6408  139.2940  164.9413 C.ar    1  UNL1        0.0124
     16 C         143.3125  139.1925  165.6308 C.ar    1  UNL1        0.0682
     17 CL        143.2313  138.6474  167.0259 Cl      1  UNL1       -0.0814
     18 C         142.0654  139.6361  164.9252 C.ar    1  UNL1        0.0683
     19 CL        140.7370  139.5346  165.6147 Cl      1  UNL1       -0.0814
     20 C         142.1465  140.1812  163.5301 C.ar    1  UNL1        0.0168
     21 C         142.9850  132.1711  156.8187 C.3     1  UNL1        0.0744
     22 C         142.5932  133.5691  156.4417 C.ar    1  UNL1        0.1481
     23 N         141.5266  133.9508  155.4585 N.ar    1  UNL1       -0.1929
     24 S         141.4732  135.4484  155.3908 S.2     1  UNL1        0.0369
     25 C         142.5068  135.9921  156.3321 C.ar    1  UNL1        0.1652
     26 N         143.1990  134.8306  156.9816 N.ar    1  UNL1       -0.2190
@<TRIPOS>BOND
     1    21    22    1
     2    22    23   ar
     3    23    24   ar
     4    24    25   ar
     5    25     1    1
     6     1     2   ar
     7     2     3   ar
     8     3     4   ar
     9     4     5   ar
    10     5     6    1
    11     6     7    1
    12     7     8    1
    13     8     9   am
    14     9    10    2
    15     9    13    1
    16    13    14   ar
    17    14    15   ar
    18    15    16   ar
    19    16    17    1
    20    16    18   ar
    21    18    19    1
    22    18    20   ar
    23     8    11    1
    24    11    12    1
    25    25    26   ar
    26    26    22   ar
    27     5     1   ar
    28    20    13   ar
    29    11     4    1
@<TRIPOS>MOLECULE
*****
 26 29 0 0 0
SMALL
GASTEIGER

@<TRIPOS>ATOM
      1 C         141.3446  143.1234  159.8166 C.ar    1  UNL1        0.1917
      2 N         140.6222  141.8205  159.6417 N.ar    1  UNL1       -0.1268
      3 N         139.6587  141.9742  158.5024 N.ar    1  UNL1       -0.1316
      4 C         139.7857  143.3719  157.9731 C.ar    1  UNL1        0.1615
      5 N         140.8277  144.0822  158.7854 N.ar    1  UNL1       -0.2940
      6 C         141.1711  145.5103  158.4811 C.3     1  UNL1        0.1302
      7 C         140.4726  146.2281  157.3644 C.3     1  UNL1        0.1186
      8 N         139.4306  145.5178  156.5522 N.am    1  UNL1       -0.2688
      9 C         138.7321  146.2356  155.4356 C.2     1  UNL1        0.2494
     10 O         137.6901  145.5253  154.6233 O.2     1  UNL1       -0.2699
     11 C         139.0872  144.0897  156.8565 C.3     1  UNL1        0.1343
     12 C         138.0452  143.3794  156.0443 C.3     1  UNL1        0.0298
     13 C         139.0755  147.6637  155.1313 C.ar    1  UNL1        0.0545
     14 C         138.4264  148.7725  155.9054 C.ar    1  UNL1        0.0054
     15 C         138.7699  150.2006  155.6010 C.ar    1  UNL1        0.0124
     16 C         139.7624  150.5199  154.5226 C.ar    1  UNL1        0.0682
     17 CL        140.1059  151.9480  154.2182 Cl      1  UNL1       -0.0814
     18 C         140.4114  149.4110  153.7485 C.ar    1  UNL1        0.0683
     19 CL        141.4039  149.7303  152.6700 Cl      1  UNL1       -0.0814
     20 C         140.0680  147.9830  154.0528 C.ar    1  UNL1        0.0168
     21 C         143.8281  145.0665  164.0519 C.3     1  UNL1        0.0744
     22 C         143.5405  144.3093  162.7894 C.ar    1  UNL1        0.1481
     23 N         144.5023  143.4239  162.0538 N.ar    1  UNL1       -0.1929
     24 S         143.7967  142.8719  160.8506 S.2     1  UNL1        0.0369
     25 C         142.3990  143.4161  160.8427 C.ar    1  UNL1        0.1652
     26 N         142.2406  144.3045  162.0409 N.ar    1  UNL1       -0.2190
@<TRIPOS>BOND
     1    21    22    1
     2    22    23   ar
     3    23    24   ar
     4    24    25   ar
     5    25     1    1
     6     1     2   ar
     7     2     3   ar
     8     3     4   ar
     9     4     5   ar
    10     5     6    1
    11     6     7    1
    12     7     8    1
    13     8     9   am
    14     9    10    2
    15     9    13    1
    16    13    14   ar
    17    14    15   ar
    18    15    16   ar
    19    16    17    1
    20    16    18   ar
    21    18    19    1
    22    18    20   ar
    23     8    11    1
    24    11    12    1
    25    25    26   ar
    26    26    22   ar
    27     5     1   ar
    28    20    13   ar
    29    11     4    1
