@<TRIPOS>MOLECULE
*****
 30 33 0 0 0
SMALL
GASTEIGER

@<TRIPOS>ATOM
      1 C         141.3191  140.9404  162.3200 C.3     1  UNL1        0.1467
      2 C         142.6779  137.4659  157.9698 C.3     1  UNL1        0.0896
      3 N         142.4426  138.2059  159.2532 N.3     1  UNL1       -0.2715
      4 C         142.9616  137.6494  160.5458 C.3     1  UNL1        0.0725
      5 C         142.7263  138.3893  161.8292 C.3     1  UNL1        0.0238
      6 C         141.9720  139.6858  161.8200 C.3     1  UNL1        0.0489
      7 C         141.4530  140.2423  160.5274 C.3     1  UNL1        0.0238
      8 C         141.6883  139.5024  159.2440 C.3     1  UNL1        0.0725
      9 C         142.2642  139.5649  163.2863 C.ar    1  UNL1       -0.0202
     10 C         141.8775  138.3199  164.0280 C.ar    1  UNL1       -0.0019
     11 C         142.1698  138.1989  165.4942 C.ar    1  UNL1        0.0293
     12 C         142.8488  139.3232  166.2188 C.ar    1  UNL1        0.1401
     13 F         143.1410  139.2024  167.6851 F       1  UNL1       -0.2042
     14 C         143.2355  140.5684  165.4771 C.ar    1  UNL1        0.0293
     15 C         142.9432  140.6892  164.0108 C.ar    1  UNL1       -0.0019
     16 O         139.8831  141.2212  161.9902 O.3     1  UNL1       -0.3470
     17 C         138.9403  141.6705  163.0670 C.3     1  UNL1        0.1874
     18 C         139.0654  141.1130  164.4539 C.ar    1  UNL1        0.0883
     19 C         138.4782  139.7715  164.7789 C.ar    1  UNL1        0.0211
     20 C         138.6034  139.2142  166.1658 C.ar    1  UNL1        0.0738
     21 C         139.3158  139.9982  167.2278 C.ar    1  UNL1        0.0186
     22 C         139.9031  141.3397  166.9028 C.ar    1  UNL1        0.0583
     23 N         139.7779  141.8971  165.5159 N.ar    1  UNL1       -0.2515
     24 C         138.0162  137.8726  166.4909 C.3     1  UNL1        0.4187
     25 F         137.4290  136.5312  166.8159 F       1  UNL1       -0.1659
     26 F         138.8155  137.2543  165.3823 F       1  UNL1       -0.1659
     27 F         137.2169  138.4911  167.5994 F       1  UNL1       -0.1659
     28 C         140.6154  142.1237  167.9648 C.3     1  UNL1        0.0403
     29 C         141.8700  142.4420  168.7230 C.3     1  UNL1        0.0063
     30 C         140.5950  143.1632  169.0460 C.3     1  UNL1        0.0063
@<TRIPOS>BOND
     1     2     3    1
     2     3     4    1
     3     4     5    1
     4     5     6    1
     5     6     1    1
     6     1    16    1
     7    16    17    1
     8    17    18    1
     9    18    19   ar
    10    19    20   ar
    11    20    24    1
    12    24    25    1
    13    24    26    1
    14    24    27    1
    15    20    21   ar
    16    21    22   ar
    17    22    28    1
    18    28    29    1
    19    29    30    1
    20    22    23   ar
    21     6     9    1
    22     9    10   ar
    23    10    11   ar
    24    11    12   ar
    25    12    13    1
    26    12    14   ar
    27    14    15   ar
    28     6     7    1
    29     7     8    1
    30     8     3    1
    31    23    18   ar
    32    15     9   ar
    33    30    28    1
@<TRIPOS>MOLECULE
*****
 30 33 0 0 0
SMALL
GASTEIGER

@<TRIPOS>ATOM
      1 C         141.5193  138.0071  163.3992 C.3     1  UNL1        0.1467
      2 C         139.9546  138.8218  157.9467 C.3     1  UNL1        0.0896
      3 N         140.1236  138.6655  159.4289 N.3     1  UNL1       -0.2715
      4 C         138.9575  138.8922  160.3447 C.3     1  UNL1        0.0725
      5 C         139.1265  138.7359  161.8270 C.3     1  UNL1        0.0238
      6 C         140.4616  138.3530  162.3934 C.3     1  UNL1        0.0489
      7 C         141.6277  138.1264  161.4775 C.3     1  UNL1        0.0238
      8 C         141.4587  138.2827  159.9953 C.3     1  UNL1        0.0725
      9 C         139.6628  138.4595  163.6585 C.ar    1  UNL1       -0.0202
     10 C         139.6340  137.3136  164.6260 C.ar    1  UNL1       -0.0019
     11 C         138.8352  137.4200  165.8912 C.ar    1  UNL1        0.0293
     12 C         138.0652  138.6724  166.1888 C.ar    1  UNL1        0.1401
     13 F         137.2664  138.7789  167.4540 F       1  UNL1       -0.2042
     14 C         138.0939  139.8183  165.2213 C.ar    1  UNL1        0.0293
     15 C         138.8927  139.7119  163.9562 C.ar    1  UNL1       -0.0019
     16 O         142.8029  138.7824  163.4345 O.3     1  UNL1       -0.3470
     17 C         143.2547  139.4272  164.7113 C.3     1  UNL1        0.1874
     18 C         142.2805  140.2079  165.5429 C.ar    1  UNL1        0.0883
     19 C         141.9029  139.7209  166.9105 C.ar    1  UNL1        0.0211
     20 C         140.9287  140.5016  167.7420 C.ar    1  UNL1        0.0738
     21 C         140.3322  141.7692  167.2061 C.ar    1  UNL1        0.0186
     22 C         140.7098  142.2561  165.8384 C.ar    1  UNL1        0.0583
     23 N         141.6839  141.4755  165.0068 N.ar    1  UNL1       -0.2515
     24 C         140.5511  140.0147  169.1097 C.3     1  UNL1        0.4187
     25 F         140.1734  139.5279  170.4773 F       1  UNL1       -0.1659
     26 F         139.2045  140.6602  168.9676 F       1  UNL1       -0.1659
     27 F         141.8976  139.3693  169.2517 F       1  UNL1       -0.1659
     28 C         140.1132  143.5237  165.3025 C.3     1  UNL1        0.0403
     29 C         140.1622  144.6809  164.3492 C.3     1  UNL1        0.0063
     30 C         139.0310  144.5621  165.3272 C.3     1  UNL1        0.0063
@<TRIPOS>BOND
     1     2     3    1
     2     3     4    1
     3     4     5    1
     4     5     6    1
     5     6     1    1
     6     1    16    1
     7    16    17    1
     8    17    18    1
     9    18    19   ar
    10    19    20   ar
    11    20    24    1
    12    24    25    1
    13    24    26    1
    14    24    27    1
    15    20    21   ar
    16    21    22   ar
    17    22    28    1
    18    28    29    1
    19    29    30    1
    20    22    23   ar
    21     6     9    1
    22     9    10   ar
    23    10    11   ar
    24    11    12   ar
    25    12    13    1
    26    12    14   ar
    27    14    15   ar
    28     6     7    1
    29     7     8    1
    30     8     3    1
    31    23    18   ar
    32    15     9   ar
    33    30    28    1
@<TRIPOS>MOLECULE
*****
 30 33 0 0 0
SMALL
GASTEIGER

@<TRIPOS>ATOM
      1 C         140.3575  137.8123  162.4892 C.3     1  UNL1        0.1467
      2 C         137.9335  140.3460  157.9564 C.3     1  UNL1        0.0896
      3 N         138.3861  139.7971  159.2770 N.3     1  UNL1       -0.2715
      4 C         137.6428  140.1513  160.5308 C.3     1  UNL1        0.0725
      5 C         138.0954  139.6024  161.8514 C.3     1  UNL1        0.0238
      6 C         139.2912  138.6993  161.9181 C.3     1  UNL1        0.0489
      7 C         140.0344  138.3452  160.6643 C.3     1  UNL1        0.0238
      8 C         139.5819  138.8941  159.3438 C.3     1  UNL1        0.0725
      9 C         138.9182  138.7454  163.3703 C.ar    1  UNL1       -0.0202
     10 C         138.5252  140.0475  164.0028 C.ar    1  UNL1       -0.0019
     11 C         138.1523  140.0937  165.4549 C.ar    1  UNL1        0.0293
     12 C         138.1724  138.8376  166.2746 C.ar    1  UNL1        0.1401
     13 F         137.7994  138.8837  167.7268 F       1  UNL1       -0.2042
     14 C         138.5654  137.5355  165.6422 C.ar    1  UNL1        0.0293
     15 C         138.9383  137.4894  164.1900 C.ar    1  UNL1       -0.0019
     16 O         141.8024  138.0982  162.2055 O.3     1  UNL1       -0.3470
     17 C         142.7216  138.4958  163.3222 C.3     1  UNL1        0.1874
     18 C         142.2889  139.5316  164.3170 C.ar    1  UNL1        0.0883
     19 C         142.0698  139.1491  165.7509 C.ar    1  UNL1        0.0211
     20 C         141.6371  140.1851  166.7456 C.ar    1  UNL1        0.0738
     21 C         141.4234  141.6034  166.3067 C.ar    1  UNL1        0.0186
     22 C         141.6424  141.9859  164.8729 C.ar    1  UNL1        0.0583
     23 N         142.0751  140.9500  163.8781 N.ar    1  UNL1       -0.2515
     24 C         141.4180  139.8026  168.1795 C.3     1  UNL1        0.4187
     25 F         141.1991  139.4202  169.6133 F       1  UNL1       -0.1659
     26 F         142.6738  138.9826  168.1525 F       1  UNL1       -0.1659
     27 F         140.1624  140.6227  168.2064 F       1  UNL1       -0.1659
     28 C         141.4287  143.4041  164.4340 C.3     1  UNL1        0.0403
     29 C         141.9858  144.7283  164.0023 C.3     1  UNL1        0.0063
     30 C         140.5016  144.5367  164.1055 C.3     1  UNL1        0.0063
@<TRIPOS>BOND
     1     2     3    1
     2     3     4    1
     3     4     5    1
     4     5     6    1
     5     6     1    1
     6     1    16    1
     7    16    17    1
     8    17    18    1
     9    18    19   ar
    10    19    20   ar
    11    20    24    1
    12    24    25    1
    13    24    26    1
    14    24    27    1
    15    20    21   ar
    16    21    22   ar
    17    22    28    1
    18    28    29    1
    19    29    30    1
    20    22    23   ar
    21     6     9    1
    22     9    10   ar
    23    10    11   ar
    24    11    12   ar
    25    12    13    1
    26    12    14   ar
    27    14    15   ar
    28     6     7    1
    29     7     8    1
    30     8     3    1
    31    23    18   ar
    32    15     9   ar
    33    30    28    1
@<TRIPOS>MOLECULE
*****
 30 33 0 0 0
SMALL
GASTEIGER

@<TRIPOS>ATOM
      1 C         142.4600  142.3769  165.4403 C.3     1  UNL1        0.1467
      2 C         141.9074  142.0018  171.1320 C.3     1  UNL1        0.0896
      3 N         141.8111  142.1781  169.6456 N.3     1  UNL1       -0.2715
      4 C         140.5301  142.6553  169.0283 C.3     1  UNL1        0.0725
      5 C         140.4338  142.8316  167.5418 C.3     1  UNL1        0.0238
      6 C         141.6186  142.5307  166.6726 C.3     1  UNL1        0.0489
      7 C         142.8997  142.0534  167.2898 C.3     1  UNL1        0.0238
      8 C         142.9959  141.8772  168.7763 C.3     1  UNL1        0.0725
      9 C         140.6297  142.9545  165.6273 C.ar    1  UNL1       -0.0202
     10 C         139.2237  142.4337  165.6700 C.ar    1  UNL1       -0.0019
     11 C         138.2347  142.8575  164.6249 C.ar    1  UNL1        0.0293
     12 C         138.6519  143.8021  163.5370 C.ar    1  UNL1        0.1401
     13 F         137.6630  144.2260  162.4918 F       1  UNL1       -0.2042
     14 C         140.0579  144.3230  163.4942 C.ar    1  UNL1        0.0293
     15 C         141.0468  143.8992  164.5394 C.ar    1  UNL1       -0.0019
     16 O         143.3527  141.1813  165.2861 O.3     1  UNL1       -0.3470
     17 C         142.9156  140.0234  164.4386 C.3     1  UNL1        0.1874
     18 C         141.4569  139.7978  164.1716 C.ar    1  UNL1        0.0883
     19 C         140.6140  139.0707  165.1770 C.ar    1  UNL1        0.0211
     20 C         139.1554  138.8452  164.9099 C.ar    1  UNL1        0.0738
     21 C         138.5395  139.3468  163.6375 C.ar    1  UNL1        0.0186
     22 C         139.3824  140.0739  162.6320 C.ar    1  UNL1        0.0583
     23 N         140.8411  140.2995  162.8991 N.ar    1  UNL1       -0.2515
     24 C         138.3124  138.1180  165.9153 C.3     1  UNL1        0.4187
     25 F         137.4695  137.3908  166.9206 F       1  UNL1       -0.1659
     26 F         138.8642  136.8097  165.4316 F       1  UNL1       -0.1659
     27 F         137.7607  139.4263  166.3989 F       1  UNL1       -0.1659
     28 C         138.7666  140.5755  161.3596 C.3     1  UNL1        0.0403
     29 C         137.9813  140.3195  160.1074 C.3     1  UNL1        0.0063
     30 C         138.4850  141.7001  160.4078 C.3     1  UNL1        0.0063
@<TRIPOS>BOND
     1     2     3    1
     2     3     4    1
     3     4     5    1
     4     5     6    1
     5     6     1    1
     6     1    16    1
     7    16    17    1
     8    17    18    1
     9    18    19   ar
    10    19    20   ar
    11    20    24    1
    12    24    25    1
    13    24    26    1
    14    24    27    1
    15    20    21   ar
    16    21    22   ar
    17    22    28    1
    18    28    29    1
    19    29    30    1
    20    22    23   ar
    21     6     9    1
    22     9    10   ar
    23    10    11   ar
    24    11    12   ar
    25    12    13    1
    26    12    14   ar
    27    14    15   ar
    28     6     7    1
    29     7     8    1
    30     8     3    1
    31    23    18   ar
    32    15     9   ar
    33    30    28    1
@<TRIPOS>MOLECULE
*****
 30 33 0 0 0
SMALL
GASTEIGER

@<TRIPOS>ATOM
      1 C         142.5491  139.7348  166.0057 C.3     1  UNL1        0.1467
      2 C         140.9915  141.7490  171.1398 C.3     1  UNL1        0.0896
      3 N         141.1558  141.1561  169.7718 N.3     1  UNL1       -0.2715
      4 C         139.9730  140.5654  169.0634 C.3     1  UNL1        0.0725
      5 C         140.1372  139.9725  167.6953 C.3     1  UNL1        0.0238
      6 C         141.4843  139.9705  167.0357 C.3     1  UNL1        0.0489
      7 C         142.6672  140.5612  167.7440 C.3     1  UNL1        0.0238
      8 C         142.5029  141.1540  169.1121 C.3     1  UNL1        0.0725
      9 C         140.6712  139.2978  165.9696 C.ar    1  UNL1       -0.0202
     10 C         141.2865  138.2233  165.1230 C.ar    1  UNL1       -0.0019
     11 C         140.4735  137.5507  164.0569 C.ar    1  UNL1        0.0293
     12 C         139.0451  137.9526  163.8375 C.ar    1  UNL1        0.1401
     13 F         138.2320  137.2800  162.7714 F       1  UNL1       -0.2042
     14 C         138.4297  139.0272  164.6841 C.ar    1  UNL1        0.0293
     15 C         139.2429  139.6998  165.7501 C.ar    1  UNL1       -0.0019
     16 O         143.4193  140.8697  165.5534 O.3     1  UNL1       -0.3470
     17 C         143.0841  141.6171  164.2967 C.3     1  UNL1        0.1874
     18 C         141.6623  141.9965  164.0064 C.ar    1  UNL1        0.0883
     19 C         140.9801  143.0419  164.8382 C.ar    1  UNL1        0.0211
     20 C         139.5583  143.4212  164.5478 C.ar    1  UNL1        0.0738
     21 C         138.8185  142.7553  163.4257 C.ar    1  UNL1        0.0186
     22 C         139.5006  141.7099  162.5939 C.ar    1  UNL1        0.0583
     23 N         140.9225  141.3305  162.8842 N.ar    1  UNL1       -0.2515
     24 C         138.8760  144.4666  165.3796 C.3     1  UNL1        0.4187
     25 F         138.1939  145.5120  166.2113 F       1  UNL1       -0.1659
     26 F         138.1172  144.9320  164.1723 F       1  UNL1       -0.1659
     27 F         139.6349  144.0012  166.5869 F       1  UNL1       -0.1659
     28 C         138.7608  141.0439  161.4718 C.3     1  UNL1        0.0403
     29 C         138.5063  140.8755  160.0031 C.3     1  UNL1        0.0063
     30 C         137.7341  140.0589  160.9967 C.3     1  UNL1        0.0063
@<TRIPOS>BOND
     1     2     3    1
     2     3     4    1
     3     4     5    1
     4     5     6    1
     5     6     1    1
     6     1    16    1
     7    16    17    1
     8    17    18    1
     9    18    19   ar
    10    19    20   ar
    11    20    24    1
    12    24    25    1
    13    24    26    1
    14    24    27    1
    15    20    21   ar
    16    21    22   ar
    17    22    28    1
    18    28    29    1
    19    29    30    1
    20    22    23   ar
    21     6     9    1
    22     9    10   ar
    23    10    11   ar
    24    11    12   ar
    25    12    13    1
    26    12    14   ar
    27    14    15   ar
    28     6     7    1
    29     7     8    1
    30     8     3    1
    31    23    18   ar
    32    15     9   ar
    33    30    28    1
@<TRIPOS>MOLECULE
*****
 30 33 0 0 0
SMALL
GASTEIGER

@<TRIPOS>ATOM
      1 C         140.4150  137.8278  163.0038 C.3     1  UNL1        0.1467
      2 C         138.1896  140.2952  158.3345 C.3     1  UNL1        0.0896
      3 N         138.5820  139.7619  159.6805 N.3     1  UNL1       -0.2715
      4 C         137.7706  140.1135  160.8921 C.3     1  UNL1        0.0725
      5 C         138.1629  139.5802  162.2381 C.3     1  UNL1        0.0238
      6 C         139.3666  138.6953  162.3725 C.3     1  UNL1        0.0489
      7 C         140.1779  138.3437  161.1609 C.3     1  UNL1        0.0238
      8 C         139.7856  138.8770  159.8149 C.3     1  UNL1        0.0725
      9 C         138.9193  138.7457  163.8034 C.ar    1  UNL1       -0.0202
     10 C         138.5682  140.0607  164.4336 C.ar    1  UNL1       -0.0019
     11 C         138.1209  140.1112  165.8644 C.ar    1  UNL1        0.0293
     12 C         138.0248  138.8464  166.6651 C.ar    1  UNL1        0.1401
     13 F         137.5775  138.8967  168.0960 F       1  UNL1       -0.2042
     14 C         138.3759  137.5312  166.0350 C.ar    1  UNL1        0.0293
     15 C         138.8232  137.4809  164.6041 C.ar    1  UNL1       -0.0019
     16 O         141.8625  138.0390  162.6720 O.3     1  UNL1       -0.3470
     17 C         142.7961  138.5929  163.7072 C.3     1  UNL1        0.1874
     18 C         142.3176  139.6462  164.6619 C.ar    1  UNL1        0.0883
     19 C         142.1020  141.0511  164.1822 C.ar    1  UNL1        0.0211
     20 C         141.6235  142.1043  165.1370 C.ar    1  UNL1        0.0738
     21 C         141.3606  141.7529  166.5713 C.ar    1  UNL1        0.0186
     22 C         141.5762  140.3481  167.0510 C.ar    1  UNL1        0.0583
     23 N         142.0547  139.2947  166.0963 N.ar    1  UNL1       -0.2515
     24 C         141.4079  143.5092  164.6573 C.3     1  UNL1        0.4187
     25 F         141.1924  144.9140  164.1778 F       1  UNL1       -0.1659
     26 F         142.8800  143.7740  164.7715 F       1  UNL1       -0.1659
     27 F         139.9359  143.2443  164.5432 F       1  UNL1       -0.1659
     28 C         141.3132  139.9967  168.4853 C.3     1  UNL1        0.0403
     29 C         140.3759  139.9245  169.6542 C.3     1  UNL1        0.0063
     30 C         141.7948  139.4604  169.8007 C.3     1  UNL1        0.0063
@<TRIPOS>BOND
     1     2     3    1
     2     3     4    1
     3     4     5    1
     4     5     6    1
     5     6     1    1
     6     1    16    1
     7    16    17    1
     8    17    18    1
     9    18    19   ar
    10    19    20   ar
    11    20    24    1
    12    24    25    1
    13    24    26    1
    14    24    27    1
    15    20    21   ar
    16    21    22   ar
    17    22    28    1
    18    28    29    1
    19    29    30    1
    20    22    23   ar
    21     6     9    1
    22     9    10   ar
    23    10    11   ar
    24    11    12   ar
    25    12    13    1
    26    12    14   ar
    27    14    15   ar
    28     6     7    1
    29     7     8    1
    30     8     3    1
    31    23    18   ar
    32    15     9   ar
    33    30    28    1
@<TRIPOS>MOLECULE
*****
 30 33 0 0 0
SMALL
GASTEIGER

@<TRIPOS>ATOM
      1 C         138.3992  140.3022  163.1518 C.3     1  UNL1        0.1467
      2 C         142.8316  139.3577  159.6440 C.3     1  UNL1        0.0896
      3 N         141.7847  139.8261  160.6108 N.3     1  UNL1       -0.2715
      4 C         141.9212  141.1648  161.2735 C.3     1  UNL1        0.0725
      5 C         140.8743  141.6333  162.2403 C.3     1  UNL1        0.0238
      6 C         139.6910  140.7631  162.5443 C.3     1  UNL1        0.0489
      7 C         139.5546  139.4244  161.8816 C.3     1  UNL1        0.0238
      8 C         140.6014  138.9559  160.9148 C.3     1  UNL1        0.0725
      9 C         139.3789  141.9417  163.4181 C.ar    1  UNL1       -0.0202
     10 C         138.0292  142.5923  163.3459 C.ar    1  UNL1       -0.0019
     11 C         137.7170  143.7709  164.2196 C.ar    1  UNL1        0.0293
     12 C         138.7546  144.2990  165.1654 C.ar    1  UNL1        0.1401
     13 F         138.4424  145.4776  166.0392 F       1  UNL1       -0.2042
     14 C         140.1042  143.6485  165.2376 C.ar    1  UNL1        0.0293
     15 C         140.4164  142.4698  164.3639 C.ar    1  UNL1       -0.0019
     16 O         138.2981  138.9289  163.7468 O.3     1  UNL1       -0.3470
     17 C         138.4470  138.7403  165.2274 C.3     1  UNL1        0.1874
     18 C         139.6276  139.3266  165.9432 C.ar    1  UNL1        0.0883
     19 C         141.0177  138.9115  165.5621 C.ar    1  UNL1        0.0211
     20 C         142.1983  139.4979  166.2780 C.ar    1  UNL1        0.0738
     21 C         141.9887  140.4994  167.3748 C.ar    1  UNL1        0.0186
     22 C         140.5986  140.9145  167.7559 C.ar    1  UNL1        0.0583
     23 N         139.4180  140.3282  167.0401 N.ar    1  UNL1       -0.2515
     24 C         143.5885  139.0828  165.8970 C.3     1  UNL1        0.4187
     25 F         144.9786  138.6677  165.5160 F       1  UNL1       -0.1659
     26 F         143.6543  138.1952  167.1045 F       1  UNL1       -0.1659
     27 F         143.5225  139.9703  164.6895 F       1  UNL1       -0.1659
     28 C         140.3891  141.9160  168.8527 C.3     1  UNL1        0.0403
     29 C         139.8890  142.2526  170.2263 C.3     1  UNL1        0.0063
     30 C         140.5262  143.3139  169.3791 C.3     1  UNL1        0.0063
@<TRIPOS>BOND
     1     2     3    1
     2     3     4    1
     3     4     5    1
     4     5     6    1
     5     6     1    1
     6     1    16    1
     7    16    17    1
     8    17    18    1
     9    18    19   ar
    10    19    20   ar
    11    20    24    1
    12    24    25    1
    13    24    26    1
    14    24    27    1
    15    20    21   ar
    16    21    22   ar
    17    22    28    1
    18    28    29    1
    19    29    30    1
    20    22    23   ar
    21     6     9    1
    22     9    10   ar
    23    10    11   ar
    24    11    12   ar
    25    12    13    1
    26    12    14   ar
    27    14    15   ar
    28     6     7    1
    29     7     8    1
    30     8     3    1
    31    23    18   ar
    32    15     9   ar
    33    30    28    1
@<TRIPOS>MOLECULE
*****
 30 33 0 0 0
SMALL
GASTEIGER

@<TRIPOS>ATOM
      1 C         143.4711  139.1168  163.5450 C.3     1  UNL1        0.1467
      2 C         142.9222  138.0204  157.9469 C.3     1  UNL1        0.0896
      3 N         143.0961  138.5483  159.3401 N.3     1  UNL1       -0.2715
      4 C         143.3263  140.0136  159.5637 C.3     1  UNL1        0.0725
      5 C         143.5003  140.5414  160.9569 C.3     1  UNL1        0.0238
      6 C         143.4441  139.6041  162.1266 C.3     1  UNL1        0.0489
      7 C         143.2139  138.1388  161.9030 C.3     1  UNL1        0.0238
      8 C         143.0400  137.6109  160.5098 C.3     1  UNL1        0.0725
      9 C         143.6836  140.9001  162.8427 C.ar    1  UNL1       -0.0202
     10 C         142.6886  142.0165  162.7262 C.ar    1  UNL1       -0.0019
     11 C         142.9280  143.3125  163.4423 C.ar    1  UNL1        0.0293
     12 C         144.1627  143.4922  164.2750 C.ar    1  UNL1        0.1401
     13 F         144.4022  144.7883  164.9912 F       1  UNL1       -0.2042
     14 C         145.1578  142.3759  164.3916 C.ar    1  UNL1        0.0293
     15 C         144.9182  141.0798  163.6755 C.ar    1  UNL1       -0.0019
     16 O         142.4737  138.0959  164.0064 O.3     1  UNL1       -0.3470
     17 C         141.6215  138.3704  165.2099 C.3     1  UNL1        0.1874
     18 C         141.5110  139.7662  165.7480 C.ar    1  UNL1        0.0883
     19 C         142.4360  140.2261  166.8358 C.ar    1  UNL1        0.0211
     20 C         142.3254  141.6219  167.3738 C.ar    1  UNL1        0.0738
     21 C         141.2901  142.5578  166.8242 C.ar    1  UNL1        0.0186
     22 C         140.3652  142.0979  165.7364 C.ar    1  UNL1        0.0583
     23 N         140.4757  140.7021  165.1984 N.ar    1  UNL1       -0.2515
     24 C         143.2503  142.0818  168.4616 C.3     1  UNL1        0.4187
     25 F         144.1751  142.5418  169.5493 F       1  UNL1       -0.1659
     26 F         142.4940  141.2512  169.4557 F       1  UNL1       -0.1659
     27 F         144.0064  142.9124  167.4674 F       1  UNL1       -0.1659
     28 C         139.3298  143.0338  165.1868 C.3     1  UNL1        0.0403
     29 C         138.1413  143.2840  164.3065 C.3     1  UNL1        0.0063
     30 C         138.7250  144.4046  165.1150 C.3     1  UNL1        0.0063
@<TRIPOS>BOND
     1     2     3    1
     2     3     4    1
     3     4     5    1
     4     5     6    1
     5     6     1    1
     6     1    16    1
     7    16    17    1
     8    17    18    1
     9    18    19   ar
    10    19    20   ar
    11    20    24    1
    12    24    25    1
    13    24    26    1
    14    24    27    1
    15    20    21   ar
    16    21    22   ar
    17    22    28    1
    18    28    29    1
    19    29    30    1
    20    22    23   ar
    21     6     9    1
    22     9    10   ar
    23    10    11   ar
    24    11    12   ar
    25    12    13    1
    26    12    14   ar
    27    14    15   ar
    28     6     7    1
    29     7     8    1
    30     8     3    1
    31    23    18   ar
    32    15     9   ar
    33    30    28    1
@<TRIPOS>MOLECULE
*****
 30 33 0 0 0
SMALL
GASTEIGER

@<TRIPOS>ATOM
      1 C         142.3261  138.2973  163.6333 C.3     1  UNL1        0.1467
      2 C         141.7342  138.2825  157.9332 C.3     1  UNL1        0.0896
      3 N         141.6384  138.3221  159.4296 N.3     1  UNL1       -0.2715
      4 C         140.3071  138.5228  160.0909 C.3     1  UNL1        0.0725
      5 C         140.2113  138.5624  161.5873 C.3     1  UNL1        0.0238
      6 C         141.4468  138.4013  162.4224 C.3     1  UNL1        0.0489
      7 C         142.7781  138.2005  161.7612 C.3     1  UNL1        0.0238
      8 C         142.8739  138.1609  160.2647 C.3     1  UNL1        0.0725
      9 C         140.4209  138.5659  163.5043 C.ar    1  UNL1       -0.0202
     10 C         140.2602  137.5058  164.5532 C.ar    1  UNL1       -0.0019
     11 C         139.2343  137.6704  165.6350 C.ar    1  UNL1        0.0293
     12 C         138.3690  138.8952  165.6678 C.ar    1  UNL1        0.1401
     13 F         137.3430  139.0598  166.7496 F       1  UNL1       -0.2042
     14 C         138.5295  139.9553  164.6189 C.ar    1  UNL1        0.0293
     15 C         139.5555  139.7907  163.5371 C.ar    1  UNL1       -0.0019
     16 O         143.6101  139.0702  163.6964 O.3     1  UNL1       -0.3470
     17 C         143.8494  140.0366  164.8184 C.3     1  UNL1        0.1874
     18 C         142.6959  140.7720  165.4336 C.ar    1  UNL1        0.0883
     19 C         142.1472  141.9988  164.7672 C.ar    1  UNL1        0.0211
     20 C         140.9937  142.7340  165.3826 C.ar    1  UNL1        0.0738
     21 C         140.3888  142.2427  166.6642 C.ar    1  UNL1        0.0186
     22 C         140.9374  141.0159  167.3306 C.ar    1  UNL1        0.0583
     23 N         142.0910  140.2805  166.7153 N.ar    1  UNL1       -0.2515
     24 C         140.4449  143.9609  164.7163 C.3     1  UNL1        0.4187
     25 F         139.8963  145.1876  164.0500 F       1  UNL1       -0.1659
     26 F         141.8404  144.4644  164.4944 F       1  UNL1       -0.1659
     27 F         139.0496  143.4572  164.9381 F       1  UNL1       -0.1659
     28 C         140.3325  140.5245  168.6122 C.3     1  UNL1        0.0403
     29 C         140.4909  139.9138  169.9732 C.3     1  UNL1        0.0063
     30 C         139.1267  140.2840  169.4713 C.3     1  UNL1        0.0063
@<TRIPOS>BOND
     1     2     3    1
     2     3     4    1
     3     4     5    1
     4     5     6    1
     5     6     1    1
     6     1    16    1
     7    16    17    1
     8    17    18    1
     9    18    19   ar
    10    19    20   ar
    11    20    24    1
    12    24    25    1
    13    24    26    1
    14    24    27    1
    15    20    21   ar
    16    21    22   ar
    17    22    28    1
    18    28    29    1
    19    29    30    1
    20    22    23   ar
    21     6     9    1
    22     9    10   ar
    23    10    11   ar
    24    11    12   ar
    25    12    13    1
    26    12    14   ar
    27    14    15   ar
    28     6     7    1
    29     7     8    1
    30     8     3    1
    31    23    18   ar
    32    15     9   ar
    33    30    28    1
