@<TRIPOS>MOLECULE
*****
 36 40 0 0 0
SMALL
GASTEIGER

@<TRIPOS>ATOM
      1 C         142.2637  142.9291  159.1572 C.ar    1  UNL1        0.1353
      2 C         141.8801  142.4948  160.5407 C.ar    1  UNL1        0.0346
      3 C         142.9335  142.0177  161.4962 C.ar    1  UNL1        0.0058
      4 C         144.3704  141.9749  161.0681 C.ar    1  UNL1        0.0208
      5 C         144.7540  142.4092  159.6845 C.ar    1  UNL1        0.1003
      6 N         143.7007  142.8863  158.7291 N.ar    1  UNL1       -0.2290
      7 C         138.8825  148.7148  155.1770 C.3     1  UNL1        0.0339
      8 C         138.9562  147.2634  155.5484 C.3     1  UNL1        0.1351
      9 C         140.0096  146.7863  156.5037 C.3     1  UNL1        0.1244
     10 N         140.0833  145.3348  156.8751 N.am    1  UNL1       -0.2590
     11 C         141.1367  144.8576  157.8305 C.2     1  UNL1        0.3089
     12 O         142.1163  145.8319  158.4145 O.2     1  UNL1       -0.2522
     13 N         141.2104  143.4062  158.2018 N.am    1  UNL1       -0.2535
     14 C         139.1036  144.3606  156.2910 C.3     1  UNL1        0.1244
     15 C         138.0503  144.8377  155.3357 C.3     1  UNL1        0.1351
     16 C         137.0706  143.8634  154.7517 C.3     1  UNL1        0.0339
     17 O         137.9766  146.2891  154.9644 O.3     1  UNL1       -0.3552
     18 H         140.5674  142.7667  157.8185 H       1  UNL1        0.1578
     19 C         142.5498  141.5834  162.8798 C.ar    1  UNL1        0.0188
     20 C         142.4709  142.4652  164.0906 C.ar    1  UNL1        0.0758
     21 N         142.0500  141.6178  165.2545 N.ar    1  UNL1       -0.3267
     22 C         141.8689  140.2122  164.7631 C.ar    1  UNL1        0.0793
     23 C         141.4625  138.9490  165.4624 C.ar    1  UNL1        0.1160
     24 N         141.3651  137.6645  164.6940 N.ar    1  UNL1       -0.2408
     25 C         141.6740  137.6432  163.2263 C.ar    1  UNL1        0.0990
     26 C         142.0803  138.9064  162.5270 C.ar    1  UNL1        0.0222
     27 C         142.1777  140.1909  163.2954 C.ar    1  UNL1        0.0203
     28 C         141.8462  142.0926  166.6627 C.3     1  UNL1        0.0857
     29 C         142.9755  142.0255  167.6478 C.3     1  UNL1        0.0250
     30 C         142.7716  142.5003  169.0560 C.3     1  UNL1        0.0288
     31 C         141.4385  143.0421  169.4792 C.3     1  UNL1        0.0885
     32 C         140.3684  143.6318  170.3495 C.3     1  UNL1        0.0293
     33 O         142.1962  143.1798  170.7664 O.3     1  UNL1       -0.3867
     34 C         140.3092  143.1092  168.4942 C.3     1  UNL1        0.0288
     35 C         140.5131  142.6344  167.0860 C.3     1  UNL1        0.0250
     36 H         143.1034  142.8593  170.6435 H       1  UNL1        0.2102
@<TRIPOS>BOND
     1     8     7    1
     2     8     9    1
     3     9    10    1
     4    10    11   am
     5    11    12    2
     6    11    13   am
     7    13     1    1
     8     1     2   ar
     9     2     3   ar
    10     3    19    1
    11    19    20   ar
    12    20    21   ar
    13    28    21    1
    14    28    29    1
    15    29    30    1
    16    30    31    1
    17    31    32    1
    18    31    33    1
    19    31    34    1
    20    34    35    1
    21    21    22   ar
    22    22    23   ar
    23    23    24   ar
    24    24    25   ar
    25    25    26   ar
    26    26    27   ar
    27     3     4   ar
    28     4     5   ar
    29     5     6   ar
    30    10    14    1
    31    14    15    1
    32    15    16    1
    33    15    17    1
    34    17     8    1
    35     6     1   ar
    36    27    19   ar
    37    35    28    1
    38    27    22   ar
    39    13    18    1
    40    33    36    1
@<TRIPOS>MOLECULE
*****
 36 40 0 0 0
SMALL
GASTEIGER

@<TRIPOS>ATOM
      1 C         142.9248  138.4622  158.8737 C.ar    1  UNL1        0.1353
      2 C         142.4455  138.7003  160.2750 C.ar    1  UNL1        0.0346
      3 C         142.2187  140.1007  160.7623 C.ar    1  UNL1        0.0058
      4 C         142.4711  141.2629  159.8483 C.ar    1  UNL1        0.0208
      5 C         142.9503  141.0249  158.4470 C.ar    1  UNL1        0.1003
      6 N         143.1771  139.6245  157.9597 N.ar    1  UNL1       -0.2290
      7 C         141.3122  132.7150  153.8619 C.3     1  UNL1        0.0339
      8 C         142.0765  133.2303  155.0452 C.3     1  UNL1        0.1351
      9 C         141.8497  134.6307  155.5325 C.3     1  UNL1        0.1244
     10 N         142.6140  135.1460  156.7158 N.am    1  UNL1       -0.2590
     11 C         142.3872  136.5465  157.2031 C.2     1  UNL1        0.3089
     12 O         141.3962  137.4316  156.5071 O.2     1  UNL1       -0.2522
     13 N         143.1516  137.0618  158.3865 N.am    1  UNL1       -0.2535
     14 C         143.6051  134.2610  157.4118 C.3     1  UNL1        0.1244
     15 C         143.8319  132.8606  156.9246 C.3     1  UNL1        0.1351
     16 C         144.8230  131.9755  157.6206 C.3     1  UNL1        0.0339
     17 O         143.0676  132.3453  155.7412 O.3     1  UNL1       -0.3552
     18 H         143.8020  136.4810  158.8433 H       1  UNL1        0.1578
     19 C         141.7394  140.3388  162.1636 C.ar    1  UNL1        0.0188
     20 C         142.6003  140.4082  163.3900 C.ar    1  UNL1        0.0758
     21 N         141.7080  140.6616  164.5689 N.ar    1  UNL1       -0.3267
     22 C         140.2957  140.7488  164.0711 C.ar    1  UNL1        0.0793
     23 C         138.9946  140.9841  164.7793 C.ar    1  UNL1        0.1160
     24 N         137.7129  141.0199  164.0010 N.ar    1  UNL1       -0.2408
     25 C         137.7323  140.8205  162.5144 C.ar    1  UNL1        0.0990
     26 C         139.0334  140.5852  161.8062 C.ar    1  UNL1        0.0222
     27 C         140.3151  140.5493  162.5845 C.ar    1  UNL1        0.0203
     28 C         142.1504  140.8029  165.9952 C.3     1  UNL1        0.0857
     29 C         142.1708  139.6039  166.8965 C.3     1  UNL1        0.0250
     30 C         142.6131  139.7452  168.3228 C.3     1  UNL1        0.0288
     31 C         143.0351  141.0855  168.8479 C.3     1  UNL1        0.0885
     32 C         143.5230  142.1360  169.8009 C.3     1  UNL1        0.0293
     33 O         143.2249  140.2514  170.0801 O.3     1  UNL1       -0.3867
     34 C         143.0148  142.2843  167.9466 C.3     1  UNL1        0.0288
     35 C         142.5724  142.1430  166.5203 C.3     1  UNL1        0.0250
     36 H         142.9842  139.3316  169.8882 H       1  UNL1        0.2102
@<TRIPOS>BOND
     1     8     7    1
     2     8     9    1
     3     9    10    1
     4    10    11   am
     5    11    12    2
     6    11    13   am
     7    13     1    1
     8     1     2   ar
     9     2     3   ar
    10     3    19    1
    11    19    20   ar
    12    20    21   ar
    13    28    21    1
    14    28    29    1
    15    29    30    1
    16    30    31    1
    17    31    32    1
    18    31    33    1
    19    31    34    1
    20    34    35    1
    21    21    22   ar
    22    22    23   ar
    23    23    24   ar
    24    24    25   ar
    25    25    26   ar
    26    26    27   ar
    27     3     4   ar
    28     4     5   ar
    29     5     6   ar
    30    10    14    1
    31    14    15    1
    32    15    16    1
    33    15    17    1
    34    17     8    1
    35     6     1   ar
    36    27    19   ar
    37    35    28    1
    38    27    22   ar
    39    13    18    1
    40    33    36    1
@<TRIPOS>MOLECULE
*****
 36 40 0 0 0
SMALL
GASTEIGER

@<TRIPOS>ATOM
      1 C         135.7105  141.2033  155.6206 C.ar    1  UNL1        0.1353
      2 C         136.4214  142.5105  155.8098 C.ar    1  UNL1        0.0346
      3 C         137.9200  142.5625  155.7659 C.ar    1  UNL1        0.0058
      4 C         138.7074  141.3074  155.5329 C.ar    1  UNL1        0.0208
      5 C         137.9964  140.0002  155.3437 C.ar    1  UNL1        0.1003
      6 N         136.4980  139.9481  155.3875 N.ar    1  UNL1       -0.2290
      7 C         129.1419  138.4446  158.7816 C.3     1  UNL1        0.0339
      8 C         129.8330  139.3122  157.7718 C.3     1  UNL1        0.1351
      9 C         131.3314  139.3641  157.7279 C.3     1  UNL1        0.1244
     10 N         132.0225  140.2318  156.7181 N.am    1  UNL1       -0.2590
     11 C         133.5210  140.2838  156.6742 C.2     1  UNL1        0.3089
     12 O         134.3284  139.4681  157.6401 O.2     1  UNL1       -0.2522
     13 N         134.2121  141.1514  155.6644 N.am    1  UNL1       -0.2535
     14 C         131.2151  141.0474  155.7523 C.3     1  UNL1        0.1244
     15 C         129.7167  140.9955  155.7962 C.3     1  UNL1        0.1351
     16 C         128.9093  141.8111  154.8303 C.3     1  UNL1        0.0339
     17 O         129.0256  140.1279  156.8060 O.3     1  UNL1       -0.3552
     18 H         133.6822  141.6867  155.0305 H       1  UNL1        0.1578
     19 C         138.6309  143.8697  155.9551 C.ar    1  UNL1        0.0188
     20 C         138.2295  145.1861  155.3584 C.ar    1  UNL1        0.0758
     21 N         139.2186  146.2199  155.8088 N.ar    1  UNL1       -0.3267
     22 C         140.2313  145.5426  156.6838 C.ar    1  UNL1        0.0793
     23 C         141.4371  146.0607  157.4100 C.ar    1  UNL1        0.1160
     24 N         142.2798  145.1264  158.2265 N.ar    1  UNL1       -0.2408
     25 C         141.9165  143.6738  158.3170 C.ar    1  UNL1        0.0990
     26 C         140.7106  143.1556  157.5909 C.ar    1  UNL1        0.0222
     27 C         139.8680  144.0900  156.7743 C.ar    1  UNL1        0.0203
     28 C         139.1986  147.6757  155.4475 C.3     1  UNL1        0.0857
     29 C         139.8493  148.1427  154.1791 C.3     1  UNL1        0.0250
     30 C         139.8293  149.5984  153.8179 C.3     1  UNL1        0.0288
     31 C         139.1587  150.5871  154.7249 C.3     1  UNL1        0.0885
     32 C         138.6530  151.8959  155.2554 C.3     1  UNL1        0.0293
     33 O         139.6337  151.5086  153.6408 O.3     1  UNL1       -0.3867
     34 C         138.5081  150.1201  155.9932 C.3     1  UNL1        0.0288
     35 C         138.5281  148.6644  156.3545 C.3     1  UNL1        0.0250
     36 H         140.1002  150.9961  152.9621 H       1  UNL1        0.2102
@<TRIPOS>BOND
     1     8     7    1
     2     8     9    1
     3     9    10    1
     4    10    11   am
     5    11    12    2
     6    11    13   am
     7    13     1    1
     8     1     2   ar
     9     2     3   ar
    10     3    19    1
    11    19    20   ar
    12    20    21   ar
    13    28    21    1
    14    28    29    1
    15    29    30    1
    16    30    31    1
    17    31    32    1
    18    31    33    1
    19    31    34    1
    20    34    35    1
    21    21    22   ar
    22    22    23   ar
    23    23    24   ar
    24    24    25   ar
    25    25    26   ar
    26    26    27   ar
    27     3     4   ar
    28     4     5   ar
    29     5     6   ar
    30    10    14    1
    31    14    15    1
    32    15    16    1
    33    15    17    1
    34    17     8    1
    35     6     1   ar
    36    27    19   ar
    37    35    28    1
    38    27    22   ar
    39    13    18    1
    40    33    36    1
@<TRIPOS>MOLECULE
*****
 36 40 0 0 0
SMALL
GASTEIGER

@<TRIPOS>ATOM
      1 C         142.8841  143.2072  159.6617 C.ar    1  UNL1        0.1353
      2 C         142.5052  142.2377  160.7418 C.ar    1  UNL1        0.0346
      3 C         141.4552  142.6076  161.7472 C.ar    1  UNL1        0.0058
      4 C         140.7842  143.9470  161.6725 C.ar    1  UNL1        0.0208
      5 C         141.1630  144.9165  160.5924 C.ar    1  UNL1        0.1003
      6 N         142.2129  144.5466  159.5870 N.ar    1  UNL1       -0.2290
      7 C         144.8618  140.0223  152.8284 C.3     1  UNL1        0.0339
      8 C         145.2525  140.7139  154.1008 C.3     1  UNL1        0.1351
      9 C         144.2026  141.0839  155.1062 C.3     1  UNL1        0.1244
     10 N         144.5933  141.7755  156.3786 N.am    1  UNL1       -0.2590
     11 C         143.5433  142.1456  157.3840 C.2     1  UNL1        0.3089
     12 O         142.1027  141.8240  157.1170 O.2     1  UNL1       -0.2522
     13 N         143.9340  142.8372  158.6564 N.am    1  UNL1       -0.2535
     14 C         146.0338  142.0972  156.6456 C.3     1  UNL1        0.1244
     15 C         147.0837  141.7272  155.6403 C.3     1  UNL1        0.1351
     16 C         148.5243  142.0488  155.9073 C.3     1  UNL1        0.0339
     17 O         146.6931  141.0355  154.3679 O.3     1  UNL1       -0.3552
     18 H         144.8795  143.0483  158.8317 H       1  UNL1        0.1578
     19 C         141.0764  141.6381  162.8273 C.ar    1  UNL1        0.0188
     20 C         141.5042  141.7067  164.2634 C.ar    1  UNL1        0.0758
     21 N         140.8955  140.5408  164.9845 N.ar    1  UNL1       -0.3267
     22 C         140.0914  139.7516  163.9941 C.ar    1  UNL1        0.0793
     23 C         139.2718  138.5032  164.1341 C.ar    1  UNL1        0.1160
     24 N         138.5641  137.9329  162.9408 N.ar    1  UNL1       -0.2408
     25 C         138.6760  138.6112  161.6076 C.ar    1  UNL1        0.0990
     26 C         139.4955  139.8596  161.4676 C.ar    1  UNL1        0.0222
     27 C         140.2032  140.4299  162.6609 C.ar    1  UNL1        0.0203
     28 C         141.0616  140.2202  166.4404 C.3     1  UNL1        0.0857
     29 C         139.8865  140.3148  167.3680 C.3     1  UNL1        0.0250
     30 C         140.0526  139.9942  168.8239 C.3     1  UNL1        0.0288
     31 C         141.3937  139.5791  169.3522 C.3     1  UNL1        0.0885
     32 C         142.4547  139.1443  170.3194 C.3     1  UNL1        0.0293
     33 O         140.5872  139.5227  170.6157 O.3     1  UNL1       -0.3867
     34 C         142.5687  139.4845  168.4246 C.3     1  UNL1        0.0288
     35 C         142.4026  139.8051  166.9687 C.3     1  UNL1        0.0250
     36 H         139.6698  139.7736  170.4252 H       1  UNL1        0.2102
@<TRIPOS>BOND
     1     8     7    1
     2     8     9    1
     3     9    10    1
     4    10    11   am
     5    11    12    2
     6    11    13   am
     7    13     1    1
     8     1     2   ar
     9     2     3   ar
    10     3    19    1
    11    19    20   ar
    12    20    21   ar
    13    28    21    1
    14    28    29    1
    15    29    30    1
    16    30    31    1
    17    31    32    1
    18    31    33    1
    19    31    34    1
    20    34    35    1
    21    21    22   ar
    22    22    23   ar
    23    23    24   ar
    24    24    25   ar
    25    25    26   ar
    26    26    27   ar
    27     3     4   ar
    28     4     5   ar
    29     5     6   ar
    30    10    14    1
    31    14    15    1
    32    15    16    1
    33    15    17    1
    34    17     8    1
    35     6     1   ar
    36    27    19   ar
    37    35    28    1
    38    27    22   ar
    39    13    18    1
    40    33    36    1
@<TRIPOS>MOLECULE
*****
 36 40 0 0 0
SMALL
GASTEIGER

@<TRIPOS>ATOM
      1 C         143.7018  136.1315  156.1483 C.ar    1  UNL1        0.1353
      2 C         142.5932  136.5872  157.0500 C.ar    1  UNL1        0.0346
      3 C         142.3834  138.0514  157.2997 C.ar    1  UNL1        0.0058
      4 C         143.2823  139.0597  156.6477 C.ar    1  UNL1        0.0208
      5 C         144.3910  138.6039  155.7460 C.ar    1  UNL1        0.1003
      6 N         144.6008  137.1398  155.4963 N.ar    1  UNL1       -0.2290
      7 C         144.7420  128.9016  158.8678 C.3     1  UNL1        0.0339
      8 C         144.6050  129.8474  157.7116 C.3     1  UNL1        0.1351
      9 C         144.3953  131.3115  157.9613 C.3     1  UNL1        0.1244
     10 N         144.2582  132.2573  156.8052 N.am    1  UNL1       -0.2590
     11 C         144.0486  133.7216  157.0548 C.2     1  UNL1        0.3089
     12 O         143.9759  134.2399  158.4605 O.2     1  UNL1       -0.2522
     13 N         143.9115  134.6674  155.8986 N.am    1  UNL1       -0.2535
     14 C         144.3309  131.7390  155.3994 C.3     1  UNL1        0.1244
     15 C         144.5406  130.2749  155.1498 C.3     1  UNL1        0.1351
     16 C         144.6132  129.7566  153.7441 C.3     1  UNL1        0.0339
     17 O         144.6776  129.3291  156.3059 O.3     1  UNL1       -0.3552
     18 H         143.9592  134.3272  154.9760 H       1  UNL1        0.1578
     19 C         141.2747  138.5072  158.2015 C.ar    1  UNL1        0.0188
     20 C         141.2216  138.3337  159.6905 C.ar    1  UNL1        0.0758
     21 N         139.9386  138.9358  160.1817 N.ar    1  UNL1       -0.3267
     22 C         139.1987  139.4813  158.9964 C.ar    1  UNL1        0.0793
     23 C         137.8798  140.1850  158.8733 C.ar    1  UNL1        0.1160
     24 N         137.3867  140.6239  157.5264 N.ar    1  UNL1       -0.2408
     25 C         138.2125  140.3590  156.3025 C.ar    1  UNL1        0.0990
     26 C         139.5314  139.6553  156.4256 C.ar    1  UNL1        0.0222
     27 C         140.0246  139.2164  157.7725 C.ar    1  UNL1        0.0203
     28 C         139.4764  138.9838  161.6079 C.3     1  UNL1        0.0857
     29 C         138.8445  140.2317  162.1499 C.3     1  UNL1        0.0250
     30 C         138.3824  140.2798  163.5762 C.3     1  UNL1        0.0288
     31 C         138.5521  139.0801  164.4604 C.3     1  UNL1        0.0885
     32 C         138.4956  138.2086  165.6800 C.3     1  UNL1        0.0293
     33 O         137.9006  140.0252  165.4260 O.3     1  UNL1       -0.3867
     34 C         139.1840  137.8323  163.9184 C.3     1  UNL1        0.0288
     35 C         139.6462  137.7842  162.4922 C.3     1  UNL1        0.0250
     36 H         137.7251  140.8701  164.9829 H       1  UNL1        0.2102
@<TRIPOS>BOND
     1     8     7    1
     2     8     9    1
     3     9    10    1
     4    10    11   am
     5    11    12    2
     6    11    13   am
     7    13     1    1
     8     1     2   ar
     9     2     3   ar
    10     3    19    1
    11    19    20   ar
    12    20    21   ar
    13    28    21    1
    14    28    29    1
    15    29    30    1
    16    30    31    1
    17    31    32    1
    18    31    33    1
    19    31    34    1
    20    34    35    1
    21    21    22   ar
    22    22    23   ar
    23    23    24   ar
    24    24    25   ar
    25    25    26   ar
    26    26    27   ar
    27     3     4   ar
    28     4     5   ar
    29     5     6   ar
    30    10    14    1
    31    14    15    1
    32    15    16    1
    33    15    17    1
    34    17     8    1
    35     6     1   ar
    36    27    19   ar
    37    35    28    1
    38    27    22   ar
    39    13    18    1
    40    33    36    1
@<TRIPOS>MOLECULE
*****
 36 40 0 0 0
SMALL
GASTEIGER

@<TRIPOS>ATOM
      1 C         142.0405  143.5565  159.6069 C.ar    1  UNL1        0.1353
      2 C         141.3675  142.9354  160.7949 C.ar    1  UNL1        0.0346
      3 C         142.1644  142.1118  161.7628 C.ar    1  UNL1        0.0058
      4 C         143.6342  141.9094  161.5426 C.ar    1  UNL1        0.0208
      5 C         144.3073  142.5306  160.3547 C.ar    1  UNL1        0.1003
      6 N         143.5104  143.3541  159.3868 N.ar    1  UNL1       -0.2290
      7 C         136.7689  144.0251  153.8851 C.3     1  UNL1        0.0339
      8 C         137.7292  144.6925  154.8246 C.3     1  UNL1        0.1351
      9 C         138.5261  143.8689  155.7924 C.3     1  UNL1        0.1244
     10 N         139.4863  144.5363  156.7318 N.am    1  UNL1       -0.2590
     11 C         140.2834  143.7127  157.6997 C.2     1  UNL1        0.3089
     12 O         140.1201  142.2219  157.7281 O.2     1  UNL1       -0.2522
     13 N         141.2436  144.3801  158.6391 N.am    1  UNL1       -0.2535
     14 C         139.6496  146.0271  156.7034 C.3     1  UNL1        0.1244
     15 C         138.8527  146.8506  155.7357 C.3     1  UNL1        0.1351
     16 C         139.0160  148.3414  155.7073 C.3     1  UNL1        0.0339
     17 O         137.8925  146.1833  154.7962 O.3     1  UNL1       -0.3552
     18 H         141.3508  145.3585  158.6205 H       1  UNL1        0.1578
     19 C         141.4914  141.4906  162.9507 C.ar    1  UNL1        0.0188
     20 C         141.4704  142.0475  164.3433 C.ar    1  UNL1        0.0758
     21 N         140.6873  141.1046  165.2079 N.ar    1  UNL1       -0.3267
     22 C         140.2242  139.9649  164.3496 C.ar    1  UNL1        0.0793
     23 C         139.4142  138.7407  164.6581 C.ar    1  UNL1        0.1160
     24 N         139.1012  137.7551  163.5715 N.ar    1  UNL1       -0.2408
     25 C         139.5982  137.9937  162.1765 C.ar    1  UNL1        0.0990
     26 C         140.4082  139.2179  161.8680 C.ar    1  UNL1        0.0222
     27 C         140.7212  140.2035  162.9546 C.ar    1  UNL1        0.0203
     28 C         140.4149  141.2719  166.6734 C.3     1  UNL1        0.0857
     29 C         139.9339  140.1055  167.4849 C.3     1  UNL1        0.0250
     30 C         139.6616  140.2729  168.9504 C.3     1  UNL1        0.0288
     31 C         139.8702  141.6065  169.6046 C.3     1  UNL1        0.0885
     32 C         139.9175  142.6624  170.6689 C.3     1  UNL1        0.0293
     33 O         139.4056  140.8069  170.7856 O.3     1  UNL1       -0.3867
     34 C         140.3512  142.7728  168.7932 C.3     1  UNL1        0.0288
     35 C         140.6236  142.6054  167.3276 C.3     1  UNL1        0.0250
     36 H         139.2263  139.8948  170.5082 H       1  UNL1        0.2102
@<TRIPOS>BOND
     1     8     7    1
     2     8     9    1
     3     9    10    1
     4    10    11   am
     5    11    12    2
     6    11    13   am
     7    13     1    1
     8     1     2   ar
     9     2     3   ar
    10     3    19    1
    11    19    20   ar
    12    20    21   ar
    13    28    21    1
    14    28    29    1
    15    29    30    1
    16    30    31    1
    17    31    32    1
    18    31    33    1
    19    31    34    1
    20    34    35    1
    21    21    22   ar
    22    22    23   ar
    23    23    24   ar
    24    24    25   ar
    25    25    26   ar
    26    26    27   ar
    27     3     4   ar
    28     4     5   ar
    29     5     6   ar
    30    10    14    1
    31    14    15    1
    32    15    16    1
    33    15    17    1
    34    17     8    1
    35     6     1   ar
    36    27    19   ar
    37    35    28    1
    38    27    22   ar
    39    13    18    1
    40    33    36    1
@<TRIPOS>MOLECULE
*****
 36 40 0 0 0
SMALL
GASTEIGER

@<TRIPOS>ATOM
      1 C         143.5576  140.0994  159.1980 C.ar    1  UNL1        0.1353
      2 C         143.0210  140.3440  160.5772 C.ar    1  UNL1        0.0346
      3 C         143.2620  141.6613  161.2531 C.ar    1  UNL1        0.0058
      4 C         144.0396  142.7338  160.5497 C.ar    1  UNL1        0.0208
      5 C         144.5762  142.4893  159.1705 C.ar    1  UNL1        0.1003
      6 N         144.3352  141.1720  158.4947 N.ar    1  UNL1       -0.2290
      7 C         140.3961  135.9702  153.3925 C.3     1  UNL1        0.0339
      8 C         141.2088  136.0294  154.6519 C.3     1  UNL1        0.1351
      9 C         141.4499  137.3466  155.3277 C.3     1  UNL1        0.1244
     10 N         142.2626  137.4057  156.5870 N.am    1  UNL1       -0.2590
     11 C         142.5038  138.7230  157.2629 C.2     1  UNL1        0.3089
     12 O         141.9321  139.9811  156.6794 O.2     1  UNL1       -0.2522
     13 N         143.3165  138.7822  158.5222 N.am    1  UNL1       -0.2535
     14 C         142.8343  136.1477  157.1705 C.3     1  UNL1        0.1244
     15 C         142.5932  134.8304  156.4947 C.3     1  UNL1        0.1351
     16 C         143.1648  133.5723  157.0782 C.3     1  UNL1        0.0339
     17 O         141.7804  134.7713  155.2354 O.3     1  UNL1       -0.3552
     18 H         143.6917  137.9565  158.9052 H       1  UNL1        0.1578
     19 C         142.7254  141.9059  162.6323 C.ar    1  UNL1        0.0188
     20 C         143.2053  141.2517  163.8940 C.ar    1  UNL1        0.0758
     21 N         142.3911  141.7891  165.0334 N.ar    1  UNL1       -0.3267
     22 C         141.4081  142.7755  164.4760 C.ar    1  UNL1        0.0793
     23 C         140.3515  143.6173  165.1279 C.ar    1  UNL1        0.1160
     24 N         139.5016  144.5312  164.2959 N.ar    1  UNL1       -0.2408
     25 C         139.7082  144.6034  162.8120 C.ar    1  UNL1        0.0990
     26 C         140.7647  143.7616  162.1600 C.ar    1  UNL1        0.0222
     27 C         141.6147  142.8477  162.9920 C.ar    1  UNL1        0.0203
     28 C         142.5347  141.4073  166.4768 C.3     1  UNL1        0.0857
     29 C         143.1417  142.3728  167.4513 C.3     1  UNL1        0.0250
     30 C         143.2853  141.9910  168.8947 C.3     1  UNL1        0.0288
     31 C         142.8220  140.6436  169.3638 C.3     1  UNL1        0.0885
     32 C         142.5349  139.4927  170.2820 C.3     1  UNL1        0.0293
     33 O         143.3292  141.2094  170.6571 O.3     1  UNL1       -0.3867
     34 C         142.2152  139.6781  168.3894 C.3     1  UNL1        0.0288
     35 C         142.0715  140.0600  166.9459 C.3     1  UNL1        0.0250
     36 H         143.6708  142.1047  170.5065 H       1  UNL1        0.2102
@<TRIPOS>BOND
     1     8     7    1
     2     8     9    1
     3     9    10    1
     4    10    11   am
     5    11    12    2
     6    11    13   am
     7    13     1    1
     8     1     2   ar
     9     2     3   ar
    10     3    19    1
    11    19    20   ar
    12    20    21   ar
    13    28    21    1
    14    28    29    1
    15    29    30    1
    16    30    31    1
    17    31    32    1
    18    31    33    1
    19    31    34    1
    20    34    35    1
    21    21    22   ar
    22    22    23   ar
    23    23    24   ar
    24    24    25   ar
    25    25    26   ar
    26    26    27   ar
    27     3     4   ar
    28     4     5   ar
    29     5     6   ar
    30    10    14    1
    31    14    15    1
    32    15    16    1
    33    15    17    1
    34    17     8    1
    35     6     1   ar
    36    27    19   ar
    37    35    28    1
    38    27    22   ar
    39    13    18    1
    40    33    36    1
@<TRIPOS>MOLECULE
*****
 36 40 0 0 0
SMALL
GASTEIGER

@<TRIPOS>ATOM
      1 C         142.8841  137.1762  157.4724 C.ar    1  UNL1        0.1353
      2 C         142.0568  137.7206  158.5990 C.ar    1  UNL1        0.0346
      3 C         141.9810  139.2014  158.8265 C.ar    1  UNL1        0.0058
      4 C         142.7325  140.1376  157.9273 C.ar    1  UNL1        0.0208
      5 C         143.5598  139.5932  156.8007 C.ar    1  UNL1        0.1003
      6 N         143.6356  138.1125  156.5732 N.ar    1  UNL1       -0.2290
      7 C         140.3461  130.7674  153.8343 C.3     1  UNL1        0.0339
      8 C         141.2678  131.4230  154.8196 C.3     1  UNL1        0.1351
      9 C         141.1921  132.9037  155.0470 C.3     1  UNL1        0.1244
     10 N         142.1138  133.5592  156.0323 N.am    1  UNL1       -0.2590
     11 C         142.0381  135.0400  156.2597 C.2     1  UNL1        0.3089
     12 O         141.0407  135.8652  155.5019 O.2     1  UNL1       -0.2522
     13 N         142.9598  135.6955  157.2450 N.am    1  UNL1       -0.2535
     14 C         143.1111  132.7340  156.7901 C.3     1  UNL1        0.1244
     15 C         143.1868  131.2533  156.5627 C.3     1  UNL1        0.1351
     16 C         144.1842  130.4281  157.3206 C.3     1  UNL1        0.0339
     17 O         142.2651  130.5978  155.5775 O.3     1  UNL1       -0.3552
     18 H         143.6144  135.1539  157.7424 H       1  UNL1        0.1578
     19 C         141.1537  139.7457  159.9531 C.ar    1  UNL1        0.0188
     20 C         141.1274  139.2246  161.3594 C.ar    1  UNL1        0.0758
     21 N         140.1649  140.0636  162.1466 N.ar    1  UNL1       -0.3267
     22 C         139.5964  141.1032  161.2268 C.ar    1  UNL1        0.0793
     23 C         138.6012  142.2034  161.4486 C.ar    1  UNL1        0.1160
     24 N         138.2172  143.1071  160.3147 N.ar    1  UNL1       -0.2408
     25 C         138.8283  142.9106  158.9590 C.ar    1  UNL1        0.0990
     26 C         139.8235  141.8104  158.7372 C.ar    1  UNL1        0.0222
     27 C         140.2075  140.9068  159.8711 C.ar    1  UNL1        0.0203
     28 C         139.8298  139.8930  163.5987 C.3     1  UNL1        0.0857
     29 C         138.7913  138.8944  164.0165 C.3     1  UNL1        0.0250
     30 C         138.4562  138.7238  165.4686 C.3     1  UNL1        0.0288
     31 C         139.1594  139.5517  166.5029 C.3     1  UNL1        0.0885
     32 C         139.5490  140.0989  167.8442 C.3     1  UNL1        0.0293
     33 O         138.2563  138.7431  167.3865 O.3     1  UNL1       -0.3867
     34 C         140.1978  140.5503  166.0852 C.3     1  UNL1        0.0288
     35 C         140.5330  140.7209  164.6331 C.3     1  UNL1        0.0250
     36 H         137.7233  138.1432  166.8416 H       1  UNL1        0.2102
@<TRIPOS>BOND
     1     8     7    1
     2     8     9    1
     3     9    10    1
     4    10    11   am
     5    11    12    2
     6    11    13   am
     7    13     1    1
     8     1     2   ar
     9     2     3   ar
    10     3    19    1
    11    19    20   ar
    12    20    21   ar
    13    28    21    1
    14    28    29    1
    15    29    30    1
    16    30    31    1
    17    31    32    1
    18    31    33    1
    19    31    34    1
    20    34    35    1
    21    21    22   ar
    22    22    23   ar
    23    23    24   ar
    24    24    25   ar
    25    25    26   ar
    26    26    27   ar
    27     3     4   ar
    28     4     5   ar
    29     5     6   ar
    30    10    14    1
    31    14    15    1
    32    15    16    1
    33    15    17    1
    34    17     8    1
    35     6     1   ar
    36    27    19   ar
    37    35    28    1
    38    27    22   ar
    39    13    18    1
    40    33    36    1
@<TRIPOS>MOLECULE
*****
 36 40 0 0 0
SMALL
GASTEIGER

@<TRIPOS>ATOM
      1 C         142.9751  143.5063  158.3913 C.ar    1  UNL1        0.1353
      2 C         142.8861  142.5594  159.5512 C.ar    1  UNL1        0.0346
      3 C         142.0637  142.9202  160.7527 C.ar    1  UNL1        0.0058
      4 C         141.3302  144.2280  160.7941 C.ar    1  UNL1        0.0208
      5 C         141.4191  145.1749  159.6342 C.ar    1  UNL1        0.1003
      6 N         142.2415  144.8140  158.4327 N.ar    1  UNL1       -0.2290
      7 C         149.8325  141.5479  155.2466 C.3     1  UNL1        0.0339
      8 C         148.3692  141.8397  155.0935 C.3     1  UNL1        0.1351
      9 C         147.5467  142.2007  156.2948 C.3     1  UNL1        0.1244
     10 N         146.0834  142.4925  156.1417 N.am    1  UNL1       -0.2590
     11 C         145.2608  142.8535  157.3431 C.2     1  UNL1        0.3089
     12 O         145.9017  142.9225  158.6975 O.2     1  UNL1       -0.2522
     13 N         143.7975  143.1454  157.1899 N.am    1  UNL1       -0.2535
     14 C         145.4426  142.4235  154.7872 C.3     1  UNL1        0.1244
     15 C         146.2650  142.0625  153.5859 C.3     1  UNL1        0.1351
     16 C         145.6242  141.9935  152.2314 C.3     1  UNL1        0.0339
     17 O         147.7283  141.7707  153.7390 O.3     1  UNL1       -0.3552
     18 H         143.3769  143.1000  156.3010 H       1  UNL1        0.1578
     19 C         141.9748  141.9733  161.9127 C.ar    1  UNL1        0.0188
     20 C         140.7138  141.3991  162.4874 C.ar    1  UNL1        0.0758
     21 N         141.0910  140.5053  163.6314 N.ar    1  UNL1       -0.3267
     22 C         142.5850  140.5271  163.7638 C.ar    1  UNL1        0.0793
     23 C         143.5186  139.8381  164.7143 C.ar    1  UNL1        0.1160
     24 N         144.9984  140.0563  164.6025 N.ar    1  UNL1       -0.2408
     25 C         145.5446  140.9636  163.5402 C.ar    1  UNL1        0.0990
     26 C         144.6110  141.6527  162.5897 C.ar    1  UNL1        0.0222
     27 C         143.1312  141.4344  162.7015 C.ar    1  UNL1        0.0203
     28 C         140.1410  139.7264  164.4921 C.3     1  UNL1        0.0857
     29 C         139.8747  138.2801  164.1964 C.3     1  UNL1        0.0250
     30 C         138.9247  137.5012  165.0571 C.3     1  UNL1        0.0288
     31 C         138.2409  138.1685  166.2134 C.3     1  UNL1        0.0885
     32 C         137.3582  138.3562  167.4116 C.3     1  UNL1        0.0293
     33 O         137.6681  136.7874  166.3339 O.3     1  UNL1       -0.3867
     34 C         138.5072  139.6147  166.5091 C.3     1  UNL1        0.0288
     35 C         139.4572  140.3937  165.6484 C.3     1  UNL1        0.0250
     36 H         138.0295  136.2250  165.6310 H       1  UNL1        0.2102
@<TRIPOS>BOND
     1     8     7    1
     2     8     9    1
     3     9    10    1
     4    10    11   am
     5    11    12    2
     6    11    13   am
     7    13     1    1
     8     1     2   ar
     9     2     3   ar
    10     3    19    1
    11    19    20   ar
    12    20    21   ar
    13    28    21    1
    14    28    29    1
    15    29    30    1
    16    30    31    1
    17    31    32    1
    18    31    33    1
    19    31    34    1
    20    34    35    1
    21    21    22   ar
    22    22    23   ar
    23    23    24   ar
    24    24    25   ar
    25    25    26   ar
    26    26    27   ar
    27     3     4   ar
    28     4     5   ar
    29     5     6   ar
    30    10    14    1
    31    14    15    1
    32    15    16    1
    33    15    17    1
    34    17     8    1
    35     6     1   ar
    36    27    19   ar
    37    35    28    1
    38    27    22   ar
    39    13    18    1
    40    33    36    1
