@<TRIPOS>MOLECULE
*****
 33 36 0 0 0
SMALL
GASTEIGER

@<TRIPOS>ATOM
      1 N         140.6393  141.7216  167.8545 N.ar    1  UNL1       -0.2399
      2 N         140.4652  142.0082  166.3924 N.ar    1  UNL1       -0.1681
      3 C         139.6019  140.9296  165.8082 C.ar    1  UNL1        0.1079
      4 C         139.2424  139.9764  166.9092 C.ar    1  UNL1        0.1031
      5 C         139.8835  140.4658  168.1738 C.ar    1  UNL1        0.1280
      6 N         139.7860  139.8140  169.5213 N.pl3   1  UNL1       -0.3427
      7 H         139.2633  138.9870  169.6314 H       1  UNL1        0.1437
      8 H         140.2447  140.2132  170.2955 H       1  UNL1        0.1437
      9 C         139.1733  140.8229  164.3746 C.ar    1  UNL1        0.0197
     10 C         137.8203  141.3181  163.9575 C.ar    1  UNL1        0.0031
     11 C         137.3918  141.2115  162.5240 C.ar    1  UNL1        0.0193
     12 C         138.3163  140.6096  161.5076 C.ar    1  UNL1        0.0844
     13 N         137.8877  140.5030  160.0741 N.ar    1  UNL1       -0.2117
     14 C         138.8122  139.9011  159.0577 C.ar    1  UNL1        0.2247
     15 C         140.1653  139.4059  159.4749 C.ar    1  UNL1        0.0577
     16 C         140.5938  139.5126  160.9084 C.ar    1  UNL1        0.0063
     17 C         139.6693  140.1144  161.9248 C.ar    1  UNL1        0.0180
     18 C         140.0978  140.2211  163.3582 C.ar    1  UNL1        0.0031
     19 O         138.3837  139.7945  157.6242 O.3     1  UNL1       -0.4640
     20 C         137.4886  140.8408  157.0291 C.3     1  UNL1        0.1678
     21 C         136.2186  141.2159  156.3245 C.3     1  UNL1        0.0473
     22 C         137.2081  142.2778  156.7032 C.3     1  UNL1        0.0473
     23 C         138.3912  138.7492  166.7700 C.2     1  UNL1        0.2470
     24 N         138.5728  137.8402  165.5907 N.am    1  UNL1       -0.3252
     25 O         137.3583  138.4309  167.8102 O.2     1  UNL1       -0.2702
     26 H         139.2506  138.0490  164.9080 H       1  UNL1        0.1453
     27 H         138.0140  137.0347  165.4995 H       1  UNL1        0.1453
     28 C         142.9166  142.3690  168.9245 C.3     1  UNL1        0.0265
     29 C         141.4303  142.5459  168.8264 C.3     1  UNL1        0.1091
     30 C         140.7349  143.5473  169.7004 C.3     1  UNL1        0.0561
     31 C         139.8237  143.0810  170.7968 C.3     1  UNL1        0.1392
     32 O         140.3319  142.1323  171.8417 O.3     1  UNL1       -0.3819
     33 H         140.5402  141.2791  171.4299 H       1  UNL1        0.2104
@<TRIPOS>BOND
     1    28    29    1
     2    29    30    1
     3    30    31    1
     4    31    32    1
     5    29     1    1
     6     1     2   ar
     7     2     3   ar
     8     3     9    1
     9     9    10   ar
    10    10    11   ar
    11    11    12   ar
    12    12    13   ar
    13    13    14   ar
    14    14    19    1
    15    19    20    1
    16    20    21    1
    17    21    22    1
    18    14    15   ar
    19    15    16   ar
    20    16    17   ar
    21    17    18   ar
    22     3     4   ar
    23     4    23    1
    24    23    24   am
    25    23    25    2
    26     4     5   ar
    27     5     6    1
    28     5     1   ar
    29    18     9   ar
    30    17    12   ar
    31    22    20    1
    32    32    33    1
    33    24    26    1
    34    24    27    1
    35     6     7    1
    36     6     8    1
@<TRIPOS>MOLECULE
*****
 33 36 0 0 0
SMALL
GASTEIGER

@<TRIPOS>ATOM
      1 N         140.4317  141.5805  167.7056 N.ar    1  UNL1       -0.2399
      2 N         140.3464  141.8094  166.2256 N.ar    1  UNL1       -0.1681
      3 C         139.5152  140.7100  165.6336 C.ar    1  UNL1        0.1079
      4 C         139.0867  139.8016  166.7477 C.ar    1  UNL1        0.1031
      5 C         139.6531  140.3396  168.0283 C.ar    1  UNL1        0.1280
      6 N         139.4726  139.7417  169.3921 N.pl3   1  UNL1       -0.3427
      7 H         138.9410  138.9206  169.5032 H       1  UNL1        0.1437
      8 H         139.8859  140.1704  170.1761 H       1  UNL1        0.1437
      9 C         139.1726  140.5475  164.1823 C.ar    1  UNL1        0.0197
     10 C         137.8486  141.0274  163.6659 C.ar    1  UNL1        0.0031
     11 C         137.5061  140.8649  162.2146 C.ar    1  UNL1        0.0193
     12 C         138.4876  140.2225  161.2797 C.ar    1  UNL1        0.0844
     13 N         138.1451  140.0600  159.8284 N.ar    1  UNL1       -0.2117
     14 C         139.1266  139.4177  158.8935 C.ar    1  UNL1        0.2247
     15 C         140.4506  138.9378  159.4100 C.ar    1  UNL1        0.0577
     16 C         140.7931  139.1003  160.8612 C.ar    1  UNL1        0.0063
     17 C         139.8116  139.7427  161.7961 C.ar    1  UNL1        0.0180
     18 C         140.1541  139.9052  163.2474 C.ar    1  UNL1        0.0031
     19 O         138.7841  139.2552  157.4422 O.3     1  UNL1       -0.4640
     20 C         139.6382  138.3914  156.5622 C.3     1  UNL1        0.1678
     21 C         139.9269  137.0597  155.9352 C.3     1  UNL1        0.0473
     22 C         140.8289  138.2273  155.6648 C.3     1  UNL1        0.0473
     23 C         138.2404  138.5713  166.6062 C.2     1  UNL1        0.2470
     24 N         138.5231  137.5886  165.5088 N.am    1  UNL1       -0.3252
     25 O         137.1114  138.3236  167.5623 O.2     1  UNL1       -0.2702
     26 H         139.2641  137.7512  164.8813 H       1  UNL1        0.1453
     27 H         137.9676  136.7811  165.4160 H       1  UNL1        0.1453
     28 C         142.6537  142.3120  168.8359 C.3     1  UNL1        0.0265
     29 C         141.1664  142.4414  168.6900 C.3     1  UNL1        0.1091
     30 C         140.4139  143.4315  169.5286 C.3     1  UNL1        0.0561
     31 C         139.7259  142.9821  170.7834 C.3     1  UNL1        0.1392
     32 O         140.5086  142.2951  171.8629 O.3     1  UNL1       -0.3819
     33 H         140.8268  141.4389  171.5366 H       1  UNL1        0.2104
@<TRIPOS>BOND
     1    28    29    1
     2    29    30    1
     3    30    31    1
     4    31    32    1
     5    29     1    1
     6     1     2   ar
     7     2     3   ar
     8     3     9    1
     9     9    10   ar
    10    10    11   ar
    11    11    12   ar
    12    12    13   ar
    13    13    14   ar
    14    14    19    1
    15    19    20    1
    16    20    21    1
    17    21    22    1
    18    14    15   ar
    19    15    16   ar
    20    16    17   ar
    21    17    18   ar
    22     3     4   ar
    23     4    23    1
    24    23    24   am
    25    23    25    2
    26     4     5   ar
    27     5     6    1
    28     5     1   ar
    29    18     9   ar
    30    17    12   ar
    31    22    20    1
    32    32    33    1
    33    24    26    1
    34    24    27    1
    35     6     7    1
    36     6     8    1
@<TRIPOS>MOLECULE
*****
 33 36 0 0 0
SMALL
GASTEIGER

@<TRIPOS>ATOM
      1 N         140.4064  142.0896  168.1842 N.ar    1  UNL1       -0.2399
      2 N         140.3377  142.8097  166.8701 N.ar    1  UNL1       -0.1681
      3 C         139.6547  141.9096  165.8835 C.ar    1  UNL1        0.1079
      4 C         139.3013  140.6332  166.5878 C.ar    1  UNL1        0.1031
      5 C         139.7659  140.7445  168.0097 C.ar    1  UNL1        0.1280
      6 N         139.6162  139.6949  169.0708 N.pl3   1  UNL1       -0.3427
      7 H         139.1789  138.8388  168.8582 H       1  UNL1        0.1437
      8 H         139.9553  139.8621  169.9798 H       1  UNL1        0.1437
      9 C         139.3744  142.2297  164.4450 C.ar    1  UNL1        0.0197
     10 C         137.9779  142.5604  164.0087 C.ar    1  UNL1        0.0031
     11 C         137.6976  142.8805  162.5703 C.ar    1  UNL1        0.0193
     12 C         138.8138  142.8699  161.5683 C.ar    1  UNL1        0.0844
     13 N         138.5334  143.1900  160.1299 N.ar    1  UNL1       -0.2117
     14 C         139.6496  143.1794  159.1279 C.ar    1  UNL1        0.2247
     15 C         141.0462  142.8486  159.5643 C.ar    1  UNL1        0.0577
     16 C         141.3264  142.5285  161.0027 C.ar    1  UNL1        0.0063
     17 C         140.2103  142.5392  162.0047 C.ar    1  UNL1        0.0180
     18 C         140.4905  142.2191  163.4430 C.ar    1  UNL1        0.0031
     19 O         139.3693  143.4994  157.6895 O.3     1  UNL1       -0.4640
     20 C         139.9434  144.7399  157.0715 C.3     1  UNL1        0.1678
     21 C         140.7791  145.3968  156.0131 C.3     1  UNL1        0.0473
     22 C         140.1021  146.2314  157.0596 C.3     1  UNL1        0.0473
     23 C         138.6056  139.4529  165.9774 C.2     1  UNL1        0.2470
     24 N         139.0235  138.9517  164.6268 N.am    1  UNL1       -0.3252
     25 O         137.4917  138.7736  166.7177 O.2     1  UNL1       -0.2702
     26 H         139.7546  139.3975  164.1409 H       1  UNL1        0.1453
     27 H         138.5668  138.1770  164.2263 H       1  UNL1        0.1453
     28 C         140.4097  143.8217  170.1207 C.3     1  UNL1        0.0265
     29 C         141.0097  142.6213  169.4504 C.3     1  UNL1        0.1091
     30 C         142.2129  141.9527  170.0463 C.3     1  UNL1        0.0561
     31 C         142.0397  140.8846  171.0852 C.3     1  UNL1        0.1392
     32 O         140.7360  140.7528  171.8152 O.3     1  UNL1       -0.3819
     33 H         140.5924  141.5389  172.3650 H       1  UNL1        0.2104
@<TRIPOS>BOND
     1    28    29    1
     2    29    30    1
     3    30    31    1
     4    31    32    1
     5    29     1    1
     6     1     2   ar
     7     2     3   ar
     8     3     9    1
     9     9    10   ar
    10    10    11   ar
    11    11    12   ar
    12    12    13   ar
    13    13    14   ar
    14    14    19    1
    15    19    20    1
    16    20    21    1
    17    21    22    1
    18    14    15   ar
    19    15    16   ar
    20    16    17   ar
    21    17    18   ar
    22     3     4   ar
    23     4    23    1
    24    23    24   am
    25    23    25    2
    26     4     5   ar
    27     5     6    1
    28     5     1   ar
    29    18     9   ar
    30    17    12   ar
    31    22    20    1
    32    32    33    1
    33    24    26    1
    34    24    27    1
    35     6     7    1
    36     6     8    1
@<TRIPOS>MOLECULE
*****
 33 36 0 0 0
SMALL
GASTEIGER

@<TRIPOS>ATOM
      1 N         140.0375  140.3702  167.6091 N.ar    1  UNL1       -0.2399
      2 N         140.8286  141.2672  166.7038 N.ar    1  UNL1       -0.1681
      3 C         140.2881  141.1152  165.3128 C.ar    1  UNL1        0.1079
      4 C         139.1629  140.1244  165.3584 C.ar    1  UNL1        0.1031
      5 C         139.0080  139.6639  166.7775 C.ar    1  UNL1        0.1280
      6 N         138.0005  138.6714  167.2774 N.pl3   1  UNL1       -0.3427
      7 H         137.3626  138.2593  166.6509 H       1  UNL1        0.1437
      8 H         137.9771  138.4321  168.2321 H       1  UNL1        0.1437
      9 C         140.7855  141.8289  164.0907 C.ar    1  UNL1        0.0197
     10 C         142.0595  141.3896  163.4321 C.ar    1  UNL1        0.0031
     11 C         142.5569  142.1032  162.2102 C.ar    1  UNL1        0.0193
     12 C         141.7802  143.2562  161.6468 C.ar    1  UNL1        0.0844
     13 N         142.2777  143.9699  160.4247 N.ar    1  UNL1       -0.2117
     14 C         141.5010  145.1229  159.8613 C.ar    1  UNL1        0.2247
     15 C         140.2269  145.5622  160.5200 C.ar    1  UNL1        0.0577
     16 C         139.7295  144.8485  161.7420 C.ar    1  UNL1        0.0063
     17 C         140.5062  143.6955  162.3054 C.ar    1  UNL1        0.0180
     18 C         140.0089  142.9819  163.5273 C.ar    1  UNL1        0.0031
     19 O         141.9983  145.8365  158.6394 O.3     1  UNL1       -0.4640
     20 C         141.1860  145.8200  157.3784 C.3     1  UNL1        0.1678
     21 C         140.0100  145.3132  156.5973 C.3     1  UNL1        0.0473
     22 C         140.9552  146.2980  155.9755 C.3     1  UNL1        0.0473
     23 C         138.3375  139.6731  164.1900 C.2     1  UNL1        0.2470
     24 N         137.3009  140.5867  163.6065 N.am    1  UNL1       -0.3252
     25 O         138.5489  138.3080  163.6051 O.2     1  UNL1       -0.2702
     26 H         137.1621  141.4826  163.9904 H       1  UNL1        0.1453
     27 H         136.7592  140.2905  162.8397 H       1  UNL1        0.1453
     28 C         139.1611  140.6244  170.0417 C.3     1  UNL1        0.0265
     29 C         140.2402  140.2081  169.0864 C.3     1  UNL1        0.1091
     30 C         141.5219  139.6296  169.6085 C.3     1  UNL1        0.0561
     31 C         142.4443  140.4752  170.4356 C.3     1  UNL1        0.1392
     32 O         142.1940  140.6411  171.9052 O.3     1  UNL1       -0.3819
     33 H         141.3649  141.1264  172.0393 H       1  UNL1        0.2104
@<TRIPOS>BOND
     1    28    29    1
     2    29    30    1
     3    30    31    1
     4    31    32    1
     5    29     1    1
     6     1     2   ar
     7     2     3   ar
     8     3     9    1
     9     9    10   ar
    10    10    11   ar
    11    11    12   ar
    12    12    13   ar
    13    13    14   ar
    14    14    19    1
    15    19    20    1
    16    20    21    1
    17    21    22    1
    18    14    15   ar
    19    15    16   ar
    20    16    17   ar
    21    17    18   ar
    22     3     4   ar
    23     4    23    1
    24    23    24   am
    25    23    25    2
    26     4     5   ar
    27     5     6    1
    28     5     1   ar
    29    18     9   ar
    30    17    12   ar
    31    22    20    1
    32    32    33    1
    33    24    26    1
    34    24    27    1
    35     6     7    1
    36     6     8    1
@<TRIPOS>MOLECULE
*****
 33 36 0 0 0
SMALL
GASTEIGER

@<TRIPOS>ATOM
      1 N         139.7261  140.6550  167.6319 N.ar    1  UNL1       -0.2399
      2 N         140.2522  141.8104  166.8330 N.ar    1  UNL1       -0.1681
      3 C         139.7077  141.6969  165.4399 C.ar    1  UNL1        0.1079
      4 C         138.8451  140.4713  165.3778 C.ar    1  UNL1        0.1031
      5 C         138.8564  139.8274  166.7325 C.ar    1  UNL1        0.1280
      6 N         138.1263  138.5756  167.1199 N.pl3   1  UNL1       -0.3427
      7 H         137.5772  138.1003  166.4552 H       1  UNL1        0.1437
      8 H         138.1962  138.2293  168.0388 H       1  UNL1        0.1437
      9 C         139.9783  142.6429  164.3077 C.ar    1  UNL1        0.0197
     10 C         139.5567  144.0786  164.4129 C.ar    1  UNL1        0.0031
     11 C         139.8274  145.0245  163.2807 C.ar    1  UNL1        0.0193
     12 C         140.5196  144.5348  162.0433 C.ar    1  UNL1        0.0844
     13 N         140.7902  145.4808  160.9111 N.ar    1  UNL1       -0.2117
     14 C         141.4824  144.9911  159.6738 C.ar    1  UNL1        0.2247
     15 C         141.9040  143.5554  159.5686 C.ar    1  UNL1        0.0577
     16 C         141.6334  142.6094  160.7008 C.ar    1  UNL1        0.0063
     17 C         140.9412  143.0991  161.9382 C.ar    1  UNL1        0.0180
     18 C         140.6705  142.1532  163.0704 C.ar    1  UNL1        0.0031
     19 O         141.7531  145.9371  158.5416 O.3     1  UNL1       -0.4640
     20 C         140.8555  145.9447  157.3397 C.3     1  UNL1        0.1678
     21 C         140.4046  145.3231  156.0512 C.3     1  UNL1        0.0473
     22 C         139.7519  146.5795  156.5467 C.3     1  UNL1        0.0473
     23 C         138.1016  139.9765  164.1727 C.2     1  UNL1        0.2470
     24 N         136.9867  140.7943  163.5911 N.am    1  UNL1       -0.3252
     25 O         138.4731  138.6638  163.5490 O.2     1  UNL1       -0.2702
     26 H         136.7429  141.6558  164.0004 H       1  UNL1        0.1453
     27 H         136.4988  140.4695  162.8001 H       1  UNL1        0.1453
     28 C         138.9430  140.5537  170.1071 C.3     1  UNL1        0.0265
     29 C         140.0183  140.3761  169.0765 C.3     1  UNL1        0.1091
     30 C         141.3859  139.9197  169.4904 C.3     1  UNL1        0.0561
     31 C         142.2377  140.7959  170.3602 C.3     1  UNL1        0.1392
     32 O         142.1999  140.6364  171.8513 O.3     1  UNL1       -0.3819
     33 H         141.3220  140.8847  172.1808 H       1  UNL1        0.2104
@<TRIPOS>BOND
     1    28    29    1
     2    29    30    1
     3    30    31    1
     4    31    32    1
     5    29     1    1
     6     1     2   ar
     7     2     3   ar
     8     3     9    1
     9     9    10   ar
    10    10    11   ar
    11    11    12   ar
    12    12    13   ar
    13    13    14   ar
    14    14    19    1
    15    19    20    1
    16    20    21    1
    17    21    22    1
    18    14    15   ar
    19    15    16   ar
    20    16    17   ar
    21    17    18   ar
    22     3     4   ar
    23     4    23    1
    24    23    24   am
    25    23    25    2
    26     4     5   ar
    27     5     6    1
    28     5     1   ar
    29    18     9   ar
    30    17    12   ar
    31    22    20    1
    32    32    33    1
    33    24    26    1
    34    24    27    1
    35     6     7    1
    36     6     8    1
@<TRIPOS>MOLECULE
*****
 33 36 0 0 0
SMALL
GASTEIGER

@<TRIPOS>ATOM
      1 N         140.6846  141.2463  168.4955 N.ar    1  UNL1       -0.2399
      2 N         141.3210  141.3591  167.1419 N.ar    1  UNL1       -0.1681
      3 C         140.6109  140.4166  166.2159 C.ar    1  UNL1        0.1079
      4 C         139.5357  139.7213  166.9971 C.ar    1  UNL1        0.1031
      5 C         139.5812  140.2341  168.4060 C.ar    1  UNL1        0.1280
      6 N         138.6813  139.8093  169.5284 N.pl3   1  UNL1       -0.3427
      7 H         137.9824  139.1342  169.3704 H       1  UNL1        0.1437
      8 H         138.7896  140.2056  170.4231 H       1  UNL1        0.1437
      9 C         140.9216  140.2063  164.7635 C.ar    1  UNL1        0.0197
     10 C         140.0341  140.8044  163.7124 C.ar    1  UNL1        0.0031
     11 C         140.3448  140.5941  162.2602 C.ar    1  UNL1        0.0193
     12 C         141.5429  139.7857  161.8589 C.ar    1  UNL1        0.0844
     13 N         141.8536  139.5755  160.4065 N.ar    1  UNL1       -0.2117
     14 C         143.0517  138.7671  160.0052 C.ar    1  UNL1        0.2247
     15 C         143.9392  138.1691  161.0563 C.ar    1  UNL1        0.0577
     16 C         143.6285  138.3793  162.5086 C.ar    1  UNL1        0.0063
     17 C         142.4304  139.1877  162.9099 C.ar    1  UNL1        0.0180
     18 C         142.1197  139.3980  164.3622 C.ar    1  UNL1        0.0031
     19 O         143.3624  138.5568  158.5529 O.3     1  UNL1       -0.4640
     20 C         142.3831  137.8380  157.6728 C.3     1  UNL1        0.1678
     21 C         142.0862  136.7741  156.6580 C.3     1  UNL1        0.0473
     22 C         140.9840  137.6570  157.1634 C.3     1  UNL1        0.0473
     23 C         138.5822  138.6937  166.4633 C.2     1  UNL1        0.2470
     24 N         139.0054  137.7865  165.3463 N.am    1  UNL1       -0.3252
     25 O         137.2055  138.5734  167.0466 O.2     1  UNL1       -0.2702
     26 H         139.9090  137.8655  164.9635 H       1  UNL1        0.1453
     27 H         138.3796  137.1121  164.9960 H       1  UNL1        0.1453
     28 C         140.6294  143.4303  169.9016 C.3     1  UNL1        0.0265
     29 C         141.0819  142.0114  169.7230 C.3     1  UNL1        0.1091
     30 C         141.9316  141.3575  170.7720 C.3     1  UNL1        0.0561
     31 C         142.7383  140.1395  170.4317 C.3     1  UNL1        0.1392
     32 O         143.8029  139.6582  171.3724 O.3     1  UNL1       -0.3819
     33 H         144.5142  140.3160  171.4196 H       1  UNL1        0.2104
@<TRIPOS>BOND
     1    28    29    1
     2    29    30    1
     3    30    31    1
     4    31    32    1
     5    29     1    1
     6     1     2   ar
     7     2     3   ar
     8     3     9    1
     9     9    10   ar
    10    10    11   ar
    11    11    12   ar
    12    12    13   ar
    13    13    14   ar
    14    14    19    1
    15    19    20    1
    16    20    21    1
    17    21    22    1
    18    14    15   ar
    19    15    16   ar
    20    16    17   ar
    21    17    18   ar
    22     3     4   ar
    23     4    23    1
    24    23    24   am
    25    23    25    2
    26     4     5   ar
    27     5     6    1
    28     5     1   ar
    29    18     9   ar
    30    17    12   ar
    31    22    20    1
    32    32    33    1
    33    24    26    1
    34    24    27    1
    35     6     7    1
    36     6     8    1
@<TRIPOS>MOLECULE
*****
 33 36 0 0 0
SMALL
GASTEIGER

@<TRIPOS>ATOM
      1 N         142.4456  141.5284  168.7182 N.ar    1  UNL1       -0.2399
      2 N         142.6362  142.2937  167.4423 N.ar    1  UNL1       -0.1681
      3 C         142.9983  141.3153  166.3645 C.ar    1  UNL1        0.1079
      4 C         143.0314  139.9452  166.9743 C.ar    1  UNL1        0.1031
      5 C         142.6899  140.0769  168.4289 C.ar    1  UNL1        0.1280
      6 N         142.6071  138.9542  169.4203 N.pl3   1  UNL1       -0.3427
      7 H         142.7857  138.0297  169.1330 H       1  UNL1        0.1437
      8 H         142.3741  139.1419  170.3582 H       1  UNL1        0.1437
      9 C         143.2780  141.6485  164.9290 C.ar    1  UNL1        0.0197
     10 C         144.6859  141.6172  164.4124 C.ar    1  UNL1        0.0031
     11 C         144.9656  141.9504  162.9769 C.ar    1  UNL1        0.0193
     12 C         143.8375  142.3149  162.0580 C.ar    1  UNL1        0.0844
     13 N         144.1173  142.6481  160.6224 N.ar    1  UNL1       -0.2117
     14 C         142.9891  143.0125  159.7035 C.ar    1  UNL1        0.2247
     15 C         141.5812  143.0438  160.2201 C.ar    1  UNL1        0.0577
     16 C         141.3015  142.7106  161.6556 C.ar    1  UNL1        0.0063
     17 C         142.4296  142.3462  162.5745 C.ar    1  UNL1        0.0180
     18 C         142.1499  142.0130  164.0100 C.ar    1  UNL1        0.0031
     19 O         143.2688  143.3457  158.2680 O.3     1  UNL1       -0.4640
     20 C         142.5813  144.5113  157.6208 C.3     1  UNL1        0.1678
     21 C         142.0797  145.2027  156.3877 C.3     1  UNL1        0.0473
     22 C         141.8920  145.8388  157.7331 C.3     1  UNL1        0.0473
     23 C         143.3502  138.6678  166.2556 C.2     1  UNL1        0.2470
     24 N         142.7206  138.3783  164.9254 N.am    1  UNL1       -0.3252
     25 O         144.2987  137.6797  166.8674 O.2     1  UNL1       -0.2702
     26 H         142.0980  139.0268  164.5239 H       1  UNL1        0.1453
     27 H         142.9298  137.5398  164.4538 H       1  UNL1        0.1453
     28 C         142.9556  143.1472  170.6853 C.3     1  UNL1        0.0265
     29 C         142.0757  142.1120  170.0496 C.3     1  UNL1        0.1091
     30 C         140.8259  141.6603  170.7453 C.3     1  UNL1        0.0561
     31 C         139.6487  141.1910  169.9428 C.3     1  UNL1        0.1392
     32 O         139.4721  139.7295  169.6549 O.3     1  UNL1       -0.3819
     33 H         140.1920  139.4236  169.0812 H       1  UNL1        0.2104
@<TRIPOS>BOND
     1    28    29    1
     2    29    30    1
     3    30    31    1
     4    31    32    1
     5    29     1    1
     6     1     2   ar
     7     2     3   ar
     8     3     9    1
     9     9    10   ar
    10    10    11   ar
    11    11    12   ar
    12    12    13   ar
    13    13    14   ar
    14    14    19    1
    15    19    20    1
    16    20    21    1
    17    21    22    1
    18    14    15   ar
    19    15    16   ar
    20    16    17   ar
    21    17    18   ar
    22     3     4   ar
    23     4    23    1
    24    23    24   am
    25    23    25    2
    26     4     5   ar
    27     5     6    1
    28     5     1   ar
    29    18     9   ar
    30    17    12   ar
    31    22    20    1
    32    32    33    1
    33    24    26    1
    34    24    27    1
    35     6     7    1
    36     6     8    1
@<TRIPOS>MOLECULE
*****
 33 36 0 0 0
SMALL
GASTEIGER

@<TRIPOS>ATOM
      1 N         142.4656  141.3977  168.3156 N.ar    1  UNL1       -0.2399
      2 N         141.9116  142.4985  167.4605 N.ar    1  UNL1       -0.1681
      3 C         141.6879  141.9478  166.0833 C.ar    1  UNL1        0.1079
      4 C         142.1037  140.5067  166.0871 C.ar    1  UNL1        0.1031
      5 C         142.5844  140.1666  167.4667 C.ar    1  UNL1        0.1280
      6 N         143.0943  138.8301  167.9183 N.pl3   1  UNL1       -0.3427
      7 H         143.1345  138.0786  167.2836 H       1  UNL1        0.1437
      8 H         143.3888  138.7046  168.8493 H       1  UNL1        0.1437
      9 C         141.1438  142.7054  164.9084 C.ar    1  UNL1        0.0197
     10 C         139.8009  143.3672  164.9995 C.ar    1  UNL1        0.0031
     11 C         139.2569  144.1248  163.8247 C.ar    1  UNL1        0.0193
     12 C         140.0559  144.2205  162.5588 C.ar    1  UNL1        0.0844
     13 N         139.5119  144.9781  161.3840 N.ar    1  UNL1       -0.2117
     14 C         140.3109  145.0738  160.1181 C.ar    1  UNL1        0.2247
     15 C         141.6540  144.4119  160.0271 C.ar    1  UNL1        0.0577
     16 C         142.1979  143.6544  161.2019 C.ar    1  UNL1        0.0063
     17 C         141.3989  143.5587  162.4678 C.ar    1  UNL1        0.0180
     18 C         141.9429  142.8011  163.6426 C.ar    1  UNL1        0.0031
     19 O         139.7670  145.8313  158.9433 O.3     1  UNL1       -0.4640
     20 C         140.5337  145.8684  157.6546 C.3     1  UNL1        0.1678
     21 C         140.5588  145.8129  156.1558 C.3     1  UNL1        0.0473
     22 C         141.8367  145.9882  156.9213 C.3     1  UNL1        0.0473
     23 C         142.0486  139.5699  164.9169 C.2     1  UNL1        0.2470
     24 N         143.3190  139.0799  164.2879 N.am    1  UNL1       -0.3252
     25 O         140.7228  139.1233  164.3756 O.2     1  UNL1       -0.2702
     26 H         144.1891  139.3730  164.6431 H       1  UNL1        0.1453
     27 H         143.2827  138.4651  163.5198 H       1  UNL1        0.1453
     28 C         144.0288  142.3206  170.1743 C.3     1  UNL1        0.0265
     29 C         142.8359  141.5084  169.7649 C.3     1  UNL1        0.1091
     30 C         142.0134  140.8070  170.8048 C.3     1  UNL1        0.0561
     31 C         140.6093  140.3833  170.4902 C.3     1  UNL1        0.1392
     32 O         139.8864  139.4426  171.4081 O.3     1  UNL1       -0.3819
     33 H         140.3241  138.5771  171.3942 H       1  UNL1        0.2104
@<TRIPOS>BOND
     1    28    29    1
     2    29    30    1
     3    30    31    1
     4    31    32    1
     5    29     1    1
     6     1     2   ar
     7     2     3   ar
     8     3     9    1
     9     9    10   ar
    10    10    11   ar
    11    11    12   ar
    12    12    13   ar
    13    13    14   ar
    14    14    19    1
    15    19    20    1
    16    20    21    1
    17    21    22    1
    18    14    15   ar
    19    15    16   ar
    20    16    17   ar
    21    17    18   ar
    22     3     4   ar
    23     4    23    1
    24    23    24   am
    25    23    25    2
    26     4     5   ar
    27     5     6    1
    28     5     1   ar
    29    18     9   ar
    30    17    12   ar
    31    22    20    1
    32    32    33    1
    33    24    26    1
    34    24    27    1
    35     6     7    1
    36     6     8    1
@<TRIPOS>MOLECULE
*****
 33 36 0 0 0
SMALL
GASTEIGER

@<TRIPOS>ATOM
      1 N         142.6119  140.6288  167.4561 N.ar    1  UNL1       -0.2399
      2 N         142.2581  141.8055  166.5957 N.ar    1  UNL1       -0.1681
      3 C         142.5921  141.4581  165.1752 C.ar    1  UNL1        0.1079
      4 C         143.1523  140.0668  165.1576 C.ar    1  UNL1        0.1031
      5 C         143.1646  139.5542  166.5673 C.ar    1  UNL1        0.1280
      6 N         143.6451  138.2041  167.0104 N.pl3   1  UNL1       -0.3427
      7 H         143.9927  137.5637  166.3484 H       1  UNL1        0.1437
      8 H         143.6130  137.9585  167.9633 H       1  UNL1        0.1437
      9 C         142.3996  142.3462  163.9817 C.ar    1  UNL1        0.0197
     10 C         143.3786  143.4473  163.7005 C.ar    1  UNL1        0.0031
     11 C         143.1861  144.3354  162.5071 C.ar    1  UNL1        0.0193
     12 C         142.0146  144.1223  161.5949 C.ar    1  UNL1        0.0844
     13 N         141.8221  145.0104  160.4014 N.ar    1  UNL1       -0.2117
     14 C         140.6506  144.7973  159.4891 C.ar    1  UNL1        0.2247
     15 C         139.6716  143.6961  159.7704 C.ar    1  UNL1        0.0577
     16 C         139.8641  142.8081  160.9638 C.ar    1  UNL1        0.0063
     17 C         141.0356  143.0212  161.8760 C.ar    1  UNL1        0.0180
     18 C         141.2281  142.1331  163.0694 C.ar    1  UNL1        0.0031
     19 O         140.4581  145.6854  158.2957 O.3     1  UNL1       -0.4640
     20 C         140.1128  145.0876  156.9639 C.3     1  UNL1        0.1678
     21 C         139.0995  144.7797  155.9017 C.3     1  UNL1        0.0473
     22 C         140.5280  144.3603  155.7196 C.3     1  UNL1        0.0473
     23 C         143.6185  139.3192  163.9436 C.2     1  UNL1        0.2470
     24 N         144.9480  139.6418  163.3287 N.am    1  UNL1       -0.3252
     25 O         142.7549  138.2489  163.3445 O.2     1  UNL1       -0.2702
     26 H         145.5148  140.3442  163.7219 H       1  UNL1        0.1453
     27 H         145.2539  139.1510  162.5319 H       1  UNL1        0.1453
     28 C         143.3413  141.3325  169.8484 C.3     1  UNL1        0.0265
     29 C         142.4428  140.5420  168.9440 C.3     1  UNL1        0.1091
     30 C         141.3751  139.6647  169.5275 C.3     1  UNL1        0.0561
     31 C         140.5267  140.1668  170.6580 C.3     1  UNL1        0.1392
     32 O         139.6174  139.2243  171.3892 O.3     1  UNL1       -0.3819
     33 H         138.9212  138.9153  170.7886 H       1  UNL1        0.2104
@<TRIPOS>BOND
     1    28    29    1
     2    29    30    1
     3    30    31    1
     4    31    32    1
     5    29     1    1
     6     1     2   ar
     7     2     3   ar
     8     3     9    1
     9     9    10   ar
    10    10    11   ar
    11    11    12   ar
    12    12    13   ar
    13    13    14   ar
    14    14    19    1
    15    19    20    1
    16    20    21    1
    17    21    22    1
    18    14    15   ar
    19    15    16   ar
    20    16    17   ar
    21    17    18   ar
    22     3     4   ar
    23     4    23    1
    24    23    24   am
    25    23    25    2
    26     4     5   ar
    27     5     6    1
    28     5     1   ar
    29    18     9   ar
    30    17    12   ar
    31    22    20    1
    32    32    33    1
    33    24    26    1
    34    24    27    1
    35     6     7    1
    36     6     8    1
