@<TRIPOS>MOLECULE
*****
 31 34 0 0 0
SMALL
GASTEIGER

@<TRIPOS>ATOM
      1 O         141.2947  139.3044  163.0143 O.2     1  UNL1       -0.2734
      2 C         139.9442  139.0783  163.6267 C.2     1  UNL1        0.2420
      3 N         139.7325  139.3305  165.0902 N.am    1  UNL1       -0.2760
      4 C         138.3820  139.1044  165.7025 C.3     1  UNL1        0.0983
      5 C         138.1703  139.3566  167.1659 C.3     1  UNL1        0.0476
      6 C         139.3092  139.8350  168.0170 C.ar    1  UNL1       -0.0229
      7 C         139.0975  140.0872  169.4804 C.ar    1  UNL1       -0.0045
      8 C         140.2363  140.5655  170.3314 C.ar    1  UNL1       -0.0003
      9 C         141.5868  140.7916  169.7190 C.ar    1  UNL1       -0.0003
     10 C         141.7985  140.5394  168.2556 C.ar    1  UNL1       -0.0030
     11 C         140.6597  140.0611  167.4046 C.ar    1  UNL1       -0.0082
     12 C         140.8713  139.8088  165.9412 C.3     1  UNL1        0.0975
     13 C         142.2218  140.0349  165.3288 C.3     1  UNL1        0.0224
     14 C         142.5752  141.3805  164.7677 C.3     1  UNL1        0.0020
     15 C         143.9257  141.6066  164.1553 C.3     1  UNL1        0.0001
     16 C         144.9229  140.4872  164.1040 C.3     1  UNL1        0.0000
     17 C         144.5695  139.1417  164.6651 C.3     1  UNL1        0.0001
     18 C         143.2190  138.9156  165.2775 C.3     1  UNL1        0.0020
     19 C         138.8054  138.5999  162.7757 C.3     1  UNL1        0.1552
     20 N         137.7193  139.5525  162.3718 N.3     1  UNL1       -0.2879
     21 H         137.0856  139.6309  163.1672 H       1  UNL1        0.1238
     22 C         138.0654  140.9511  161.9542 C.3     1  UNL1        0.0961
     23 C         138.0046  142.0686  162.9528 C.3     1  UNL1        0.1027
     24 O         136.7054  141.3523  163.1741 O.3     1  UNL1       -0.3854
     25 C         137.3657  142.8675  164.0499 C.3     1  UNL1        0.0283
     26 C         137.8952  144.0825  164.7523 C.3     1  UNL1        0.0024
     27 C         139.1944  144.7988  164.5310 C.3     1  UNL1        0.0001
     28 C         140.2851  144.4770  163.5527 C.3     1  UNL1        0.0001
     29 C         140.3458  143.3593  162.5541 C.3     1  UNL1        0.0024
     30 C         139.3309  142.2875  162.2871 C.3     1  UNL1        0.0283
     31 H         136.2065  141.7972  163.8770 H       1  UNL1        0.2103
@<TRIPOS>BOND
     1     1     2    2
     2     2    19    1
     3    19    20    1
     4    20    22    1
     5    22    23    1
     6    23    24    1
     7    23    25    1
     8    25    26    1
     9    26    27    1
    10    27    28    1
    11    28    29    1
    12    29    30    1
    13     2     3   am
    14     3     4    1
    15     4     5    1
    16     5     6    1
    17     6     7   ar
    18     7     8   ar
    19     8     9   ar
    20     9    10   ar
    21    10    11   ar
    22    11    12    1
    23    12    13    1
    24    13    14    1
    25    14    15    1
    26    15    16    1
    27    16    17    1
    28    17    18    1
    29    30    23    1
    30    12     3    1
    31    18    13    1
    32    11     6   ar
    33    20    21    1
    34    24    31    1
@<TRIPOS>MOLECULE
*****
 31 34 0 0 0
SMALL
GASTEIGER

@<TRIPOS>ATOM
      1 O         143.3869  141.4332  162.6308 O.2     1  UNL1       -0.2734
      2 C         143.5194  140.0885  163.2820 C.2     1  UNL1        0.2420
      3 N         143.2879  139.9433  164.7569 N.am    1  UNL1       -0.2760
      4 C         143.4204  138.5986  165.4081 C.3     1  UNL1        0.0983
      5 C         143.1890  138.4534  166.8830 C.3     1  UNL1        0.0476
      6 C         142.8250  139.6530  167.7068 C.ar    1  UNL1       -0.0229
      7 C         142.5936  139.5079  169.1816 C.ar    1  UNL1       -0.0045
      8 C         142.2297  140.7075  170.0053 C.ar    1  UNL1       -0.0003
      9 C         142.0972  142.0522  169.3541 C.ar    1  UNL1       -0.0003
     10 C         142.3287  142.1974  167.8792 C.ar    1  UNL1       -0.0030
     11 C         142.6926  140.9978  167.0556 C.ar    1  UNL1       -0.0082
     12 C         142.9240  141.1429  165.5806 C.3     1  UNL1        0.0975
     13 C         142.7916  142.4877  164.9294 C.3     1  UNL1        0.0224
     14 C         141.4613  142.9379  164.4022 C.3     1  UNL1        0.0020
     15 C         141.3289  144.2827  163.7510 C.3     1  UNL1        0.0001
     16 C         142.5266  145.1772  163.6270 C.3     1  UNL1        0.0000
     17 C         143.8568  144.7270  164.1542 C.3     1  UNL1        0.0001
     18 C         143.9892  143.3822  164.8054 C.3     1  UNL1        0.0020
     19 C         143.8833  138.8889  162.4583 C.3     1  UNL1        0.1552
     20 N         142.8296  137.8897  162.0822 N.3     1  UNL1       -0.2879
     21 H         142.9007  137.1216  162.7495 H       1  UNL1        0.1238
     22 C         141.3870  138.2990  162.0451 C.3     1  UNL1        0.0961
     23 C         140.5182  138.0948  163.2507 C.3     1  UNL1        0.1027
     24 O         141.2189  136.7753  163.1169 O.3     1  UNL1       -0.3854
     25 C         139.9613  137.3033  164.3968 C.3     1  UNL1        0.0283
     26 C         138.9527  137.7268  165.4232 C.3     1  UNL1        0.0024
     27 C         138.2521  139.0464  165.5570 C.3     1  UNL1        0.0001
     28 C         138.3869  140.2684  164.6976 C.3     1  UNL1        0.0001
     29 C         139.2557  140.4725  163.4919 C.3     1  UNL1        0.0024
     30 C         140.2042  139.5052  162.8480 C.3     1  UNL1        0.0283
     31 H         140.9242  136.1795  163.8233 H       1  UNL1        0.2103
@<TRIPOS>BOND
     1     1     2    2
     2     2    19    1
     3    19    20    1
     4    20    22    1
     5    22    23    1
     6    23    24    1
     7    23    25    1
     8    25    26    1
     9    26    27    1
    10    27    28    1
    11    28    29    1
    12    29    30    1
    13     2     3   am
    14     3     4    1
    15     4     5    1
    16     5     6    1
    17     6     7   ar
    18     7     8   ar
    19     8     9   ar
    20     9    10   ar
    21    10    11   ar
    22    11    12    1
    23    12    13    1
    24    13    14    1
    25    14    15    1
    26    15    16    1
    27    16    17    1
    28    17    18    1
    29    30    23    1
    30    12     3    1
    31    18    13    1
    32    11     6   ar
    33    20    21    1
    34    24    31    1
@<TRIPOS>MOLECULE
*****
 31 34 0 0 0
SMALL
GASTEIGER

@<TRIPOS>ATOM
      1 O         139.9558  141.1339  162.8291 O.2     1  UNL1       -0.2734
      2 C         139.2484  140.0853  163.6354 C.2     1  UNL1        0.2420
      3 N         139.2538  140.1608  165.1335 N.am    1  UNL1       -0.2760
      4 C         138.5464  139.1122  165.9398 C.3     1  UNL1        0.0983
      5 C         138.5518  139.1876  167.4379 C.3     1  UNL1        0.0476
      6 C         139.2646  140.3116  168.1297 C.ar    1  UNL1       -0.0229
      7 C         139.2699  140.3870  169.6278 C.ar    1  UNL1       -0.0045
      8 C         139.9827  141.5110  170.3196 C.ar    1  UNL1       -0.0003
      9 C         140.6901  142.5596  169.5133 C.ar    1  UNL1       -0.0003
     10 C         140.6848  142.4841  168.0152 C.ar    1  UNL1       -0.0030
     11 C         139.9720  141.3602  167.3235 C.ar    1  UNL1       -0.0082
     12 C         139.9666  141.2847  165.8253 C.3     1  UNL1        0.0975
     13 C         140.6740  142.3333  165.0190 C.3     1  UNL1        0.0224
     14 C         139.9545  143.5895  164.6262 C.3     1  UNL1        0.0020
     15 C         140.6619  144.6381  163.8199 C.3     1  UNL1        0.0001
     16 C         142.0888  144.4304  163.4065 C.3     1  UNL1        0.0000
     17 C         142.8082  143.1742  163.7993 C.3     1  UNL1        0.0001
     18 C         142.1008  142.1257  164.6056 C.3     1  UNL1        0.0020
     19 C         138.5356  138.9613  162.9436 C.3     1  UNL1        0.1552
     20 N         139.3047  137.7628  162.4725 N.3     1  UNL1       -0.2879
     21 H         139.6435  137.9801  161.5352 H       1  UNL1        0.1238
     22 C         140.4857  137.2734  163.2572 C.3     1  UNL1        0.0961
     23 C         141.8319  137.9044  163.0583 C.3     1  UNL1        0.1027
     24 O         141.3798  137.6329  161.6541 O.3     1  UNL1       -0.3854
     25 C         142.9769  138.4146  162.2345 C.3     1  UNL1        0.0283
     26 C         144.2577  139.0415  162.6999 C.3     1  UNL1        0.0024
     27 C         144.7097  139.3130  164.1042 C.3     1  UNL1        0.0001
     28 C         143.9927  139.0248  165.3899 C.3     1  UNL1        0.0001
     29 C         142.6464  138.3938  165.5887 C.3     1  UNL1        0.0024
     30 C         141.6848  137.8952  164.5511 C.3     1  UNL1        0.0283
     31 H         142.0613  137.9311  161.0316 H       1  UNL1        0.2103
@<TRIPOS>BOND
     1     1     2    2
     2     2    19    1
     3    19    20    1
     4    20    22    1
     5    22    23    1
     6    23    24    1
     7    23    25    1
     8    25    26    1
     9    26    27    1
    10    27    28    1
    11    28    29    1
    12    29    30    1
    13     2     3   am
    14     3     4    1
    15     4     5    1
    16     5     6    1
    17     6     7   ar
    18     7     8   ar
    19     8     9   ar
    20     9    10   ar
    21    10    11   ar
    22    11    12    1
    23    12    13    1
    24    13    14    1
    25    14    15    1
    26    15    16    1
    27    16    17    1
    28    17    18    1
    29    30    23    1
    30    12     3    1
    31    18    13    1
    32    11     6   ar
    33    20    21    1
    34    24    31    1
@<TRIPOS>MOLECULE
*****
 31 34 0 0 0
SMALL
GASTEIGER

@<TRIPOS>ATOM
      1 O         140.2401  143.1397  162.1736 O.2     1  UNL1       -0.2734
      2 C         140.5198  141.7540  161.6721 C.2     1  UNL1        0.2420
      3 N         140.0959  140.5639  162.4808 N.am    1  UNL1       -0.2760
      4 C         140.3756  139.1782  161.9793 C.3     1  UNL1        0.0983
      5 C         139.9517  137.9881  162.7880 C.3     1  UNL1        0.0476
      6 C         139.2480  138.1837  164.0982 C.ar    1  UNL1       -0.0229
      7 C         138.8241  136.9936  164.9069 C.ar    1  UNL1       -0.0045
      8 C         138.1204  137.1893  166.2170 C.ar    1  UNL1       -0.0003
      9 C         137.8407  138.5750  166.7185 C.ar    1  UNL1       -0.0003
     10 C         138.2646  139.7651  165.9099 C.ar    1  UNL1       -0.0030
     11 C         138.9682  139.5694  164.5997 C.ar    1  UNL1       -0.0082
     12 C         139.3922  140.7595  163.7910 C.3     1  UNL1        0.0975
     13 C         139.1125  142.1453  164.2925 C.3     1  UNL1        0.0224
     14 C         137.8189  142.8212  163.9463 C.3     1  UNL1        0.0020
     15 C         137.5391  144.2070  164.4478 C.3     1  UNL1        0.0001
     16 C         138.5530  144.9167  165.2954 C.3     1  UNL1        0.0000
     17 C         139.8465  144.2408  165.6415 C.3     1  UNL1        0.0001
     18 C         140.1262  142.8550  165.1400 C.3     1  UNL1        0.0020
     19 C         141.2235  141.5583  160.3619 C.3     1  UNL1        0.1552
     20 N         142.7123  141.7206  160.2787 N.3     1  UNL1       -0.2879
     21 H         142.9903  141.4135  159.3466 H       1  UNL1        0.1238
     22 C         143.3330  143.0692  160.4934 C.3     1  UNL1        0.0961
     23 C         143.5138  143.5987  161.8852 C.3     1  UNL1        0.1027
     24 O         142.6732  144.6558  161.2325 O.3     1  UNL1       -0.3854
     25 C         143.3206  144.5986  162.9865 C.3     1  UNL1        0.0283
     26 C         143.8397  144.5527  164.3931 C.3     1  UNL1        0.0024
     27 C         144.6803  143.4955  165.0456 C.3     1  UNL1        0.0001
     28 C         145.2094  142.2232  164.4529 C.3     1  UNL1        0.0001
     29 C         145.0285  141.6938  163.0611 C.3     1  UNL1        0.0024
     30 C         144.2739  142.3059  161.9184 C.3     1  UNL1        0.0283
     31 H         142.4882  145.3619  161.8713 H       1  UNL1        0.2103
@<TRIPOS>BOND
     1     1     2    2
     2     2    19    1
     3    19    20    1
     4    20    22    1
     5    22    23    1
     6    23    24    1
     7    23    25    1
     8    25    26    1
     9    26    27    1
    10    27    28    1
    11    28    29    1
    12    29    30    1
    13     2     3   am
    14     3     4    1
    15     4     5    1
    16     5     6    1
    17     6     7   ar
    18     7     8   ar
    19     8     9   ar
    20     9    10   ar
    21    10    11   ar
    22    11    12    1
    23    12    13    1
    24    13    14    1
    25    14    15    1
    26    15    16    1
    27    16    17    1
    28    17    18    1
    29    30    23    1
    30    12     3    1
    31    18    13    1
    32    11     6   ar
    33    20    21    1
    34    24    31    1
@<TRIPOS>MOLECULE
*****
 31 34 0 0 0
SMALL
GASTEIGER

@<TRIPOS>ATOM
      1 O         140.7667  141.3571  162.8166 O.2     1  UNL1       -0.2734
      2 C         141.7306  140.3064  163.2822 C.2     1  UNL1        0.2420
      3 N         141.9149  140.0549  164.7495 N.am    1  UNL1       -0.2760
      4 C         142.8788  139.0042  165.2151 C.3     1  UNL1        0.0983
      5 C         143.0631  138.7528  166.6823 C.3     1  UNL1        0.0476
      6 C         142.2835  139.5521  167.6840 C.ar    1  UNL1       -0.0229
      7 C         142.4678  139.3006  169.1512 C.ar    1  UNL1       -0.0045
      8 C         141.6882  140.0999  170.1528 C.ar    1  UNL1       -0.0003
      9 C         140.7242  141.1507  169.6872 C.ar    1  UNL1       -0.0003
     10 C         140.5399  141.4021  168.2200 C.ar    1  UNL1       -0.0030
     11 C         141.3196  140.6028  167.2184 C.ar    1  UNL1       -0.0082
     12 C         141.1353  140.8542  165.7511 C.3     1  UNL1        0.0975
     13 C         140.1714  141.9050  165.2855 C.3     1  UNL1        0.0224
     14 C         140.6294  143.3242  165.1238 C.3     1  UNL1        0.0020
     15 C         139.6655  144.3750  164.6582 C.3     1  UNL1        0.0001
     16 C         138.2435  144.0065  164.3543 C.3     1  UNL1        0.0000
     17 C         137.7856  142.5873  164.5159 C.3     1  UNL1        0.0001
     18 C         138.7495  141.5366  164.9815 C.3     1  UNL1        0.0020
     19 C         142.5102  139.5071  162.2806 C.3     1  UNL1        0.1552
     20 N         143.9749  139.7681  162.0892 N.3     1  UNL1       -0.2879
     21 H         144.2555  139.2673  161.2461 H       1  UNL1        0.1238
     22 C         144.4731  141.1754  161.9431 C.3     1  UNL1        0.0961
     23 C         144.5576  142.0696  163.1443 C.3     1  UNL1        0.1027
     24 O         145.2738  140.8323  163.5983 O.3     1  UNL1       -0.3854
     25 C         144.9608  142.4133  164.5477 C.3     1  UNL1        0.0283
     26 C         144.7097  143.6811  165.3090 C.3     1  UNL1        0.0024
     27 C         143.9935  144.9183  164.8550 C.3     1  UNL1        0.0001
     28 C         143.3514  145.1935  163.5276 C.3     1  UNL1        0.0001
     29 C         143.2670  144.2991  162.3263 C.3     1  UNL1        0.0024
     30 C         143.8037  142.9089  162.1557 C.3     1  UNL1        0.0283
     31 H         145.5807  140.9527  164.5106 H       1  UNL1        0.2103
@<TRIPOS>BOND
     1     1     2    2
     2     2    19    1
     3    19    20    1
     4    20    22    1
     5    22    23    1
     6    23    24    1
     7    23    25    1
     8    25    26    1
     9    26    27    1
    10    27    28    1
    11    28    29    1
    12    29    30    1
    13     2     3   am
    14     3     4    1
    15     4     5    1
    16     5     6    1
    17     6     7   ar
    18     7     8   ar
    19     8     9   ar
    20     9    10   ar
    21    10    11   ar
    22    11    12    1
    23    12    13    1
    24    13    14    1
    25    14    15    1
    26    15    16    1
    27    16    17    1
    28    17    18    1
    29    30    23    1
    30    12     3    1
    31    18    13    1
    32    11     6   ar
    33    20    21    1
    34    24    31    1
@<TRIPOS>MOLECULE
*****
 31 34 0 0 0
SMALL
GASTEIGER

@<TRIPOS>ATOM
      1 O         140.9469  143.3083  162.8095 O.2     1  UNL1       -0.2734
      2 C         141.4684  141.9416  162.4775 C.2     1  UNL1        0.2420
      3 N         140.9044  140.7354  163.1684 N.am    1  UNL1       -0.2760
      4 C         141.4258  139.3687  162.8364 C.3     1  UNL1        0.0983
      5 C         140.8619  138.1626  163.5272 C.3     1  UNL1        0.0476
      6 C         139.7764  138.3232  164.5500 C.ar    1  UNL1       -0.0229
      7 C         139.2125  137.1170  165.2407 C.ar    1  UNL1       -0.0045
      8 C         138.1270  137.2776  166.2635 C.ar    1  UNL1       -0.0003
      9 C         137.6056  138.6443  166.5954 C.ar    1  UNL1       -0.0003
     10 C         138.1695  139.8505  165.9047 C.ar    1  UNL1       -0.0030
     11 C         139.2550  139.6899  164.8819 C.ar    1  UNL1       -0.0082
     12 C         139.8190  140.8960  164.1911 C.3     1  UNL1        0.0975
     13 C         139.2975  142.2627  164.5231 C.3     1  UNL1        0.0224
     14 C         139.9214  143.0540  165.6343 C.3     1  UNL1        0.0020
     15 C         139.4000  144.4207  165.9663 C.3     1  UNL1        0.0001
     16 C         138.2546  144.9961  165.1870 C.3     1  UNL1        0.0000
     17 C         137.6308  144.2048  164.0759 C.3     1  UNL1        0.0001
     18 C         138.1522  142.8381  163.7439 C.3     1  UNL1        0.0020
     19 C         142.5538  141.7810  161.4548 C.3     1  UNL1        0.1552
     20 N         143.9714  141.5625  161.8937 N.3     1  UNL1       -0.2879
     21 H         144.5449  142.2324  161.3810 H       1  UNL1        0.1238
     22 C         144.3375  141.6981  163.3420 C.3     1  UNL1        0.0961
     23 C         144.2115  140.5194  164.2610 C.3     1  UNL1        0.1027
     24 O         144.9042  139.9373  163.0646 O.3     1  UNL1       -0.3854
     25 C         144.3937  139.0815  164.6476 C.3     1  UNL1        0.0283
     26 C         143.9843  138.3953  165.9171 C.3     1  UNL1        0.0024
     27 C         143.2917  138.9774  167.1134 C.3     1  UNL1        0.0001
     28 C         142.8373  140.3896  167.3359 C.3     1  UNL1        0.0001
     29 C         142.9633  141.5683  166.4168 C.3     1  UNL1        0.0024
     30 C         143.5749  141.6261  165.0484 C.3     1  UNL1        0.0283
     31 H         145.0710  138.9936  163.2149 H       1  UNL1        0.2103
@<TRIPOS>BOND
     1     1     2    2
     2     2    19    1
     3    19    20    1
     4    20    22    1
     5    22    23    1
     6    23    24    1
     7    23    25    1
     8    25    26    1
     9    26    27    1
    10    27    28    1
    11    28    29    1
    12    29    30    1
    13     2     3   am
    14     3     4    1
    15     4     5    1
    16     5     6    1
    17     6     7   ar
    18     7     8   ar
    19     8     9   ar
    20     9    10   ar
    21    10    11   ar
    22    11    12    1
    23    12    13    1
    24    13    14    1
    25    14    15    1
    26    15    16    1
    27    16    17    1
    28    17    18    1
    29    30    23    1
    30    12     3    1
    31    18    13    1
    32    11     6   ar
    33    20    21    1
    34    24    31    1
@<TRIPOS>MOLECULE
*****
 31 34 0 0 0
SMALL
GASTEIGER

@<TRIPOS>ATOM
      1 O         139.8986  141.3613  163.4059 O.2     1  UNL1       -0.2734
      2 C         139.2959  140.3257  164.3083 C.2     1  UNL1        0.2420
      3 N         139.4168  140.4661  165.7969 N.am    1  UNL1       -0.2760
      4 C         138.8141  139.4306  166.6993 C.3     1  UNL1        0.0983
      5 C         138.9350  139.5710  168.1878 C.3     1  UNL1        0.0476
      6 C         139.6585  140.7470  168.7739 C.ar    1  UNL1       -0.0229
      7 C         139.7794  140.8874  170.2624 C.ar    1  UNL1       -0.0045
      8 C         140.5029  142.0633  170.8485 C.ar    1  UNL1       -0.0003
      9 C         141.1056  143.0989  169.9461 C.ar    1  UNL1       -0.0003
     10 C         140.9848  142.9585  168.4576 C.ar    1  UNL1       -0.0030
     11 C         140.2612  141.7826  167.8715 C.ar    1  UNL1       -0.0082
     12 C         140.1403  141.6421  166.3829 C.3     1  UNL1        0.0975
     13 C         140.7430  142.6777  165.4805 C.3     1  UNL1        0.0224
     14 C         139.9030  143.8137  164.9765 C.3     1  UNL1        0.0020
     15 C         140.5057  144.8493  164.0741 C.3     1  UNL1        0.0001
     16 C         141.9484  144.7489  163.6757 C.3     1  UNL1        0.0000
     17 C         142.7883  143.6129  164.1797 C.3     1  UNL1        0.0001
     18 C         142.1856  142.5773  165.0821 C.3     1  UNL1        0.0020
     19 C         138.5724  139.1497  163.7222 C.3     1  UNL1        0.1552
     20 N         139.3467  137.9690  163.2161 N.3     1  UNL1       -0.2879
     21 H         138.7612  137.1471  163.3650 H       1  UNL1        0.1238
     22 C         139.7986  137.9254  161.7864 C.3     1  UNL1        0.0961
     23 C         141.2449  138.1375  161.4502 C.3     1  UNL1        0.1027
     24 O         141.2969  137.0386  162.4699 O.3     1  UNL1       -0.3854
     25 C         142.7145  137.8605  161.5678 C.3     1  UNL1        0.0283
     26 C         143.8512  138.5196  160.8443 C.3     1  UNL1        0.0024
     27 C         143.7992  139.6185  159.8247 C.3     1  UNL1        0.0001
     28 C         142.5976  140.3297  159.2765 C.3     1  UNL1        0.0001
     29 C         141.1512  140.1176  159.6128 C.3     1  UNL1        0.0024
     30 C         140.5492  139.1420  160.5801 C.3     1  UNL1        0.0283
     31 H         142.2199  136.7814  162.6213 H       1  UNL1        0.2103
@<TRIPOS>BOND
     1     1     2    2
     2     2    19    1
     3    19    20    1
     4    20    22    1
     5    22    23    1
     6    23    24    1
     7    23    25    1
     8    25    26    1
     9    26    27    1
    10    27    28    1
    11    28    29    1
    12    29    30    1
    13     2     3   am
    14     3     4    1
    15     4     5    1
    16     5     6    1
    17     6     7   ar
    18     7     8   ar
    19     8     9   ar
    20     9    10   ar
    21    10    11   ar
    22    11    12    1
    23    12    13    1
    24    13    14    1
    25    14    15    1
    26    15    16    1
    27    16    17    1
    28    17    18    1
    29    30    23    1
    30    12     3    1
    31    18    13    1
    32    11     6   ar
    33    20    21    1
    34    24    31    1
@<TRIPOS>MOLECULE
*****
 31 34 0 0 0
SMALL
GASTEIGER

@<TRIPOS>ATOM
      1 O         142.1824  141.5217  162.7565 O.2     1  UNL1       -0.2734
      2 C         141.2803  140.4080  163.1992 C.2     1  UNL1        0.2420
      3 N         140.7711  140.3710  164.6097 N.am    1  UNL1       -0.2760
      4 C         139.8690  139.2574  165.0525 C.3     1  UNL1        0.0983
      5 C         139.3598  139.2204  166.4629 C.3     1  UNL1        0.0476
      6 C         139.7527  140.2971  167.4306 C.ar    1  UNL1       -0.0229
      7 C         139.2434  140.2600  168.8410 C.ar    1  UNL1       -0.0045
      8 C         139.6363  141.3367  169.8087 C.ar    1  UNL1       -0.0003
      9 C         140.5383  142.4504  169.3660 C.ar    1  UNL1       -0.0003
     10 C         141.0475  142.4874  167.9556 C.ar    1  UNL1       -0.0030
     11 C         140.6547  141.4107  166.9879 C.ar    1  UNL1       -0.0082
     12 C         141.1639  141.4477  165.5774 C.3     1  UNL1        0.0975
     13 C         142.0660  142.5614  165.1347 C.3     1  UNL1        0.0224
     14 C         141.4838  143.7948  164.5102 C.3     1  UNL1        0.0020
     15 C         142.3859  144.9085  164.0675 C.3     1  UNL1        0.0001
     16 C         143.8701  144.7887  164.2492 C.3     1  UNL1        0.0000
     17 C         144.4521  143.5554  164.8736 C.3     1  UNL1        0.0001
     18 C         143.5501  142.4417  165.3163 C.3     1  UNL1        0.0020
     19 C         140.8875  139.3313  162.2316 C.3     1  UNL1        0.1552
     20 N         139.4862  139.2763  161.6992 N.3     1  UNL1       -0.2879
     21 H         138.8652  139.2425  162.5077 H       1  UNL1        0.1238
     22 C         138.9786  140.3715  160.8087 C.3     1  UNL1        0.0961
     23 C         138.9334  141.7848  161.3092 C.3     1  UNL1        0.1027
     24 O         139.8123  141.8876  160.0980 O.3     1  UNL1       -0.3854
     25 C         139.2793  143.2439  161.2707 C.3     1  UNL1        0.0283
     26 C         138.8519  144.3315  162.2112 C.3     1  UNL1        0.0024
     27 C         137.9730  144.2285  163.4224 C.3     1  UNL1        0.0001
     28 C         137.3044  143.0127  163.9923 C.3     1  UNL1        0.0001
     29 C         137.3497  141.5993  163.4917 C.3     1  UNL1        0.0024
     30 C         138.0747  141.0529  162.2976 C.3     1  UNL1        0.0283
     31 H         140.0957  142.8079  159.9814 H       1  UNL1        0.2103
@<TRIPOS>BOND
     1     1     2    2
     2     2    19    1
     3    19    20    1
     4    20    22    1
     5    22    23    1
     6    23    24    1
     7    23    25    1
     8    25    26    1
     9    26    27    1
    10    27    28    1
    11    28    29    1
    12    29    30    1
    13     2     3   am
    14     3     4    1
    15     4     5    1
    16     5     6    1
    17     6     7   ar
    18     7     8   ar
    19     8     9   ar
    20     9    10   ar
    21    10    11   ar
    22    11    12    1
    23    12    13    1
    24    13    14    1
    25    14    15    1
    26    15    16    1
    27    16    17    1
    28    17    18    1
    29    30    23    1
    30    12     3    1
    31    18    13    1
    32    11     6   ar
    33    20    21    1
    34    24    31    1
@<TRIPOS>MOLECULE
*****
 31 34 0 0 0
SMALL
GASTEIGER

@<TRIPOS>ATOM
      1 O         139.2683  140.5179  162.6339 O.2     1  UNL1       -0.2734
      2 C         139.0309  141.8440  163.2936 C.2     1  UNL1        0.2420
      3 N         139.5245  142.0864  164.6892 N.am    1  UNL1       -0.2760
      4 C         139.2872  143.4124  165.3489 C.3     1  UNL1        0.0983
      5 C         139.7808  143.6549  166.7445 C.3     1  UNL1        0.0476
      6 C         140.5117  142.5712  167.4804 C.ar    1  UNL1       -0.0229
      7 C         141.0053  142.8136  168.8759 C.ar    1  UNL1       -0.0045
      8 C         141.7361  141.7300  169.6117 C.ar    1  UNL1       -0.0003
      9 C         141.9734  140.4039  168.9520 C.ar    1  UNL1       -0.0003
     10 C         141.4799  140.1615  167.5565 C.ar    1  UNL1       -0.0030
     11 C         140.7490  141.2451  166.8207 C.ar    1  UNL1       -0.0082
     12 C         140.2554  141.0027  165.4250 C.3     1  UNL1        0.0975
     13 C         140.4927  139.6766  164.7653 C.3     1  UNL1        0.0224
     14 C         139.4752  138.5821  164.8942 C.3     1  UNL1        0.0020
     15 C         139.7125  137.2560  164.2345 C.3     1  UNL1        0.0001
     16 C         140.9674  137.0245  163.4459 C.3     1  UNL1        0.0000
     17 C         141.9848  138.1191  163.3171 C.3     1  UNL1        0.0001
     18 C         141.7475  139.4451  163.9768 C.3     1  UNL1        0.0020
     19 C         138.3001  142.9276  162.5578 C.3     1  UNL1        0.1552
     20 N         138.9655  143.6407  161.4182 N.3     1  UNL1       -0.2879
     21 H         138.2430  143.8203  160.7210 H       1  UNL1        0.1238
     22 C         139.6697  144.9435  161.6574 C.3     1  UNL1        0.0961
     23 C         140.9723  144.9665  162.4009 C.3     1  UNL1        0.1027
     24 O         140.0932  145.8453  163.2405 O.3     1  UNL1       -0.3854
     25 C         141.8837  145.3806  163.5180 C.3     1  UNL1        0.0283
     26 C         143.3195  145.0080  163.7405 C.3     1  UNL1        0.0024
     27 C         144.1985  144.1291  162.9009 C.3     1  UNL1        0.0001
     28 C         143.8589  143.4059  161.6314 C.3     1  UNL1        0.0001
     29 C         142.5562  143.3829  160.8879 C.3     1  UNL1        0.0024
     30 C         141.2716  144.0774  161.2304 C.3     1  UNL1        0.0283
     31 H         140.5960  146.1715  164.0032 H       1  UNL1        0.2103
@<TRIPOS>BOND
     1     1     2    2
     2     2    19    1
     3    19    20    1
     4    20    22    1
     5    22    23    1
     6    23    24    1
     7    23    25    1
     8    25    26    1
     9    26    27    1
    10    27    28    1
    11    28    29    1
    12    29    30    1
    13     2     3   am
    14     3     4    1
    15     4     5    1
    16     5     6    1
    17     6     7   ar
    18     7     8   ar
    19     8     9   ar
    20     9    10   ar
    21    10    11   ar
    22    11    12    1
    23    12    13    1
    24    13    14    1
    25    14    15    1
    26    15    16    1
    27    16    17    1
    28    17    18    1
    29    30    23    1
    30    12     3    1
    31    18    13    1
    32    11     6   ar
    33    20    21    1
    34    24    31    1
