@<TRIPOS>MOLECULE
*****
 39 43 0 0 0
SMALL
GASTEIGER

@<TRIPOS>ATOM
      1 N         141.1370  141.9842  160.2642 N.ar    1  UNL1       -0.2986
      2 C         140.7400  143.3514  159.7919 C.ar    1  UNL1        0.1245
      3 C         140.3058  144.1468  160.9872 C.ar    1  UNL1        0.1157
      4 C         140.4344  143.2712  162.1983 C.ar    1  UNL1        0.0967
      5 C         140.9481  141.9347  161.7514 C.ar    1  UNL1        0.1354
      6 C         141.1776  140.8451  162.7566 C.ar    1  UNL1        0.2818
      7 O         141.6913  139.5085  162.3098 O.2     1  UNL1       -0.2652
      8 N         140.8933  141.0921  164.2085 N.ar    1  UNL1       -0.2433
      9 C         140.3796  142.4288  164.6553 C.ar    1  UNL1        0.3342
     10 O         140.1778  142.7362  165.3626 O.2     1  UNL1       -0.2462
     11 N         140.1501  143.5183  163.6502 N.ar    1  UNL1       -0.2770
     12 C         139.6364  144.8548  164.0970 C.3     1  UNL1        0.1351
     13 N         140.7717  143.8378  158.3732 N.pl3   1  UNL1       -0.2925
     14 C         141.9510  144.6874  158.0027 C.3     1  UNL1        0.0936
     15 C         142.2698  145.3194  156.6803 C.3     1  UNL1        0.0385
     16 C         141.4880  145.2577  155.4016 C.3     1  UNL1        0.0704
     17 N         140.1943  144.5489  155.1296 N.3     1  UNL1       -0.2960
     18 C         139.3629  143.7267  156.0692 C.3     1  UNL1        0.0903
     19 C         139.6199  143.4102  157.5128 C.3     1  UNL1        0.1092
     20 H         140.4063  143.9177  154.3569 H       1  UNL1        0.1233
     21 C         139.8270  145.5683  160.9738 C.1     1  UNL1        0.1047
     22 N         139.3483  146.9898  160.9604 N.1     1  UNL1       -0.1907
     23 C         141.6354  140.8633  159.4009 C.3     1  UNL1        0.1842
     24 C         145.4151  141.3724  157.0125 C.3     1  UNL1        0.0900
     25 C         144.1552  141.2027  157.8086 C.1     1  UNL1       -0.0881
     26 C         142.8953  141.0330  158.6048 C.1     1  UNL1       -0.0656
     27 C         141.1227  140.0026  165.2136 C.3     1  UNL1        0.1411
     28 C         140.0400  139.6391  166.1861 C.ar    1  UNL1        0.0132
     29 C         138.9215  138.7351  165.7596 C.ar    1  UNL1        0.0854
     30 C         137.8388  138.3717  166.7320 C.ar    1  UNL1        0.1088
     31 N         137.8746  138.9122  168.1309 N.ar    1  UNL1       -0.2432
     32 C         138.9930  139.8161  168.5572 C.ar    1  UNL1        0.0811
     33 C         139.0288  140.3566  169.9561 C.ar    1  UNL1        0.0191
     34 C         140.1473  141.2606  170.3824 C.ar    1  UNL1        0.0015
     35 C         141.2301  141.6240  169.4100 C.ar    1  UNL1        0.0001
     36 C         141.1943  141.0836  168.0112 C.ar    1  UNL1        0.0013
     37 C         140.0758  140.1796  167.5848 C.ar    1  UNL1        0.0162
     38 C         138.8857  138.1947  164.3609 C.1     1  UNL1        0.1017
     39 N         138.8500  137.6542  162.9621 N.1     1  UNL1       -0.1908
@<TRIPOS>BOND
     1    24    25    1
     2    25    26    3
     3    26    23    1
     4    23     1    1
     5     1     2   ar
     6     2    13    1
     7    13    14    1
     8    14    15    1
     9    15    16    1
    10    16    17    1
    11    17    18    1
    12    18    19    1
    13     2     3   ar
    14     3    21    1
    15    21    22    3
    16     3     4   ar
    17     4     5   ar
    18     5     6   ar
    19     6     7    2
    20     6     8   ar
    21     8    27    1
    22    27    28    1
    23    28    29   ar
    24    29    38    1
    25    38    39    3
    26    29    30   ar
    27    30    31   ar
    28    31    32   ar
    29    32    33   ar
    30    33    34   ar
    31    34    35   ar
    32    35    36   ar
    33    36    37   ar
    34     8     9   ar
    35     9    10    2
    36     9    11   ar
    37    11    12    1
    38     5     1   ar
    39    37    28   ar
    40    19    13    1
    41    11     4   ar
    42    37    32   ar
    43    17    20    1
@<TRIPOS>MOLECULE
*****
 39 43 0 0 0
SMALL
GASTEIGER

@<TRIPOS>ATOM
      1 N         141.4059  141.4034  161.4448 N.ar    1  UNL1       -0.2986
      2 C         140.9885  142.6817  160.7801 C.ar    1  UNL1        0.1245
      3 C         140.3848  143.5721  161.8253 C.ar    1  UNL1        0.1157
      4 C         140.4290  142.8442  163.1361 C.ar    1  UNL1        0.0967
      5 C         141.0601  141.5039  162.9009 C.ar    1  UNL1        0.1354
      6 C         141.2384  140.5480  164.0431 C.ar    1  UNL1        0.2818
      7 O         141.8694  139.2077  163.8079 O.2     1  UNL1       -0.2652
      8 N         140.7855  140.9324  165.4205 N.ar    1  UNL1       -0.2433
      9 C         140.1544  142.2728  165.6557 C.ar    1  UNL1        0.3342
     10 O         139.8608  142.6414  166.2986 O.2     1  UNL1       -0.2462
     11 N         139.9762  143.2286  164.5135 N.ar    1  UNL1       -0.2770
     12 C         139.3451  144.5689  164.7487 C.3     1  UNL1        0.1351
     13 N         141.1471  143.0115  159.3254 N.pl3   1  UNL1       -0.2925
     14 C         142.4861  143.5551  158.9235 C.3     1  UNL1        0.0936
     15 C         142.9545  143.9756  157.5620 C.3     1  UNL1        0.0385
     16 C         142.1994  143.9564  156.2660 C.3     1  UNL1        0.0704
     17 N         140.7896  143.5120  156.0115 N.3     1  UNL1       -0.2960
     18 C         139.7866  142.9769  156.9901 C.3     1  UNL1        0.0903
     19 C         139.9457  142.7542  158.4650 C.3     1  UNL1        0.1092
     20 H         140.8759  142.7789  155.3075 H       1  UNL1        0.1233
     21 C         139.8336  144.9487  161.5995 C.1     1  UNL1        0.1047
     22 N         139.2822  146.3254  161.3737 N.1     1  UNL1       -0.1907
     23 C         142.0551  140.2306  160.7717 C.3     1  UNL1        0.1842
     24 C         139.8572  137.9852  157.5502 C.3     1  UNL1        0.0900
     25 C         140.5898  138.7337  158.6240 C.1     1  UNL1       -0.0881
     26 C         141.3224  139.4822  159.6979 C.1     1  UNL1       -0.0656
     27 C         140.9637  139.9766  166.5627 C.3     1  UNL1        0.1411
     28 C         140.5607  140.3817  167.9495 C.ar    1  UNL1        0.0132
     29 C         139.2301  139.9582  168.4977 C.ar    1  UNL1        0.0854
     30 C         138.8270  140.3633  169.8846 C.ar    1  UNL1        0.1088
     31 N         139.7545  141.1919  170.7233 N.ar    1  UNL1       -0.2432
     32 C         141.0849  141.6154  170.1751 C.ar    1  UNL1        0.0811
     33 C         142.0124  142.4440  171.0138 C.ar    1  UNL1        0.0191
     34 C         143.3428  142.8674  170.4656 C.ar    1  UNL1        0.0015
     35 C         143.7459  142.4623  169.0787 C.ar    1  UNL1        0.0001
     36 C         142.8185  141.6338  168.2401 C.ar    1  UNL1        0.0013
     37 C         141.4880  141.2103  168.7882 C.ar    1  UNL1        0.0162
     38 C         138.3028  139.1296  167.6590 C.1     1  UNL1        0.1017
     39 N         137.3754  138.3011  166.8203 N.1     1  UNL1       -0.1908
@<TRIPOS>BOND
     1    24    25    1
     2    25    26    3
     3    26    23    1
     4    23     1    1
     5     1     2   ar
     6     2    13    1
     7    13    14    1
     8    14    15    1
     9    15    16    1
    10    16    17    1
    11    17    18    1
    12    18    19    1
    13     2     3   ar
    14     3    21    1
    15    21    22    3
    16     3     4   ar
    17     4     5   ar
    18     5     6   ar
    19     6     7    2
    20     6     8   ar
    21     8    27    1
    22    27    28    1
    23    28    29   ar
    24    29    38    1
    25    38    39    3
    26    29    30   ar
    27    30    31   ar
    28    31    32   ar
    29    32    33   ar
    30    33    34   ar
    31    34    35   ar
    32    35    36   ar
    33    36    37   ar
    34     8     9   ar
    35     9    10    2
    36     9    11   ar
    37    11    12    1
    38     5     1   ar
    39    37    28   ar
    40    19    13    1
    41    11     4   ar
    42    37    32   ar
    43    17    20    1
@<TRIPOS>MOLECULE
*****
 39 43 0 0 0
SMALL
GASTEIGER

@<TRIPOS>ATOM
      1 N         143.2590  140.6154  160.9715 N.ar    1  UNL1       -0.2986
      2 C         142.9223  141.7138  160.0070 C.ar    1  UNL1        0.1245
      3 C         142.4148  142.8842  160.7960 C.ar    1  UNL1        0.1157
      4 C         142.4378  142.5092  162.2482 C.ar    1  UNL1        0.0967
      5 C         142.9595  141.1070  162.3566 C.ar    1  UNL1        0.1354
      6 C         143.0944  140.4590  163.7027 C.ar    1  UNL1        0.2818
      7 O         143.6161  139.0568  163.8111 O.2     1  UNL1       -0.2652
      8 N         142.7077  141.2131  164.9403 N.ar    1  UNL1       -0.2433
      9 C         142.1860  142.6153  164.8318 C.ar    1  UNL1        0.3342
     10 O         141.9378  143.1563  165.3621 O.2     1  UNL1       -0.2462
     11 N         142.0510  143.2633  163.4858 N.ar    1  UNL1       -0.2770
     12 C         141.5293  144.6654  163.3774 C.3     1  UNL1        0.1351
     13 N         143.0677  141.6525  158.5152 N.pl3   1  UNL1       -0.2925
     14 C         141.8094  141.3680  157.7499 C.3     1  UNL1        0.0936
     15 C         141.6247  141.2446  156.2664 C.3     1  UNL1        0.0385
     16 C         142.6528  141.3751  155.1819 C.3     1  UNL1        0.0704
     17 N         144.1194  141.6613  155.3131 N.3     1  UNL1       -0.2960
     18 C         144.9202  141.8876  156.5611 C.3     1  UNL1        0.0903
     19 C         144.4521  141.8837  157.9862 C.3     1  UNL1        0.1092
     20 H         144.2656  142.5052  154.7591 H       1  UNL1        0.1233
     21 C         141.9636  144.1988  160.2320 C.1     1  UNL1        0.1047
     22 N         141.5122  145.5134  159.6680 N.1     1  UNL1       -0.1907
     23 C         143.8001  139.2630  160.6137 C.3     1  UNL1        0.1842
     24 C         142.0836  137.0051  157.1199 C.3     1  UNL1        0.0900
     25 C         142.6557  137.7577  158.2845 C.1     1  UNL1       -0.0881
     26 C         143.2279  138.5103  159.4491 C.1     1  UNL1       -0.0656
     27 C         142.8426  140.5651  166.2863 C.3     1  UNL1        0.1411
     28 C         141.6696  140.5250  167.2204 C.ar    1  UNL1        0.0132
     29 C         141.7216  141.2688  168.5220 C.ar    1  UNL1        0.0854
     30 C         140.5487  141.2287  169.4561 C.ar    1  UNL1        0.1088
     31 N         139.3237  140.4448  169.0886 N.ar    1  UNL1       -0.2432
     32 C         139.2717  139.7011  167.7870 C.ar    1  UNL1        0.0811
     33 C         138.0468  138.9172  167.4195 C.ar    1  UNL1        0.0191
     34 C         137.9948  138.1734  166.1180 C.ar    1  UNL1        0.0015
     35 C         139.1678  138.2135  165.1839 C.ar    1  UNL1        0.0001
     36 C         140.3927  138.9973  165.5514 C.ar    1  UNL1        0.0013
     37 C         140.4447  139.7412  166.8530 C.ar    1  UNL1        0.0162
     38 C         142.9466  142.0527  168.8895 C.1     1  UNL1        0.1017
     39 N         144.1715  142.8365  169.2570 N.1     1  UNL1       -0.1908
@<TRIPOS>BOND
     1    24    25    1
     2    25    26    3
     3    26    23    1
     4    23     1    1
     5     1     2   ar
     6     2    13    1
     7    13    14    1
     8    14    15    1
     9    15    16    1
    10    16    17    1
    11    17    18    1
    12    18    19    1
    13     2     3   ar
    14     3    21    1
    15    21    22    3
    16     3     4   ar
    17     4     5   ar
    18     5     6   ar
    19     6     7    2
    20     6     8   ar
    21     8    27    1
    22    27    28    1
    23    28    29   ar
    24    29    38    1
    25    38    39    3
    26    29    30   ar
    27    30    31   ar
    28    31    32   ar
    29    32    33   ar
    30    33    34   ar
    31    34    35   ar
    32    35    36   ar
    33    36    37   ar
    34     8     9   ar
    35     9    10    2
    36     9    11   ar
    37    11    12    1
    38     5     1   ar
    39    37    28   ar
    40    19    13    1
    41    11     4   ar
    42    37    32   ar
    43    17    20    1
@<TRIPOS>MOLECULE
*****
 39 43 0 0 0
SMALL
GASTEIGER

@<TRIPOS>ATOM
      1 N         142.0690  140.5838  165.6190 N.ar    1  UNL1       -0.2986
      2 C         140.9026  140.3301  166.5273 C.ar    1  UNL1        0.1245
      3 C         139.9534  139.4110  165.8171 C.ar    1  UNL1        0.1157
      4 C         140.5333  139.0967  164.4699 C.ar    1  UNL1        0.0967
      5 C         141.8408  139.8215  164.3475 C.ar    1  UNL1        0.1354
      6 C         142.6547  139.6937  163.0940 C.ar    1  UNL1        0.2818
      7 O         143.9622  140.4186  162.9716 O.2     1  UNL1       -0.2652
      8 N         142.1610  138.8411  161.9629 N.ar    1  UNL1       -0.2433
      9 C         140.8535  138.1163  162.0854 C.ar    1  UNL1        0.3342
     10 O         140.4415  137.6323  161.6042 O.2     1  UNL1       -0.2462
     11 N         140.0396  138.2441  163.3388 N.ar    1  UNL1       -0.2770
     12 C         138.7321  137.5192  163.4612 C.3     1  UNL1        0.1351
     13 N         140.7177  140.8962  167.9041 N.pl3   1  UNL1       -0.2925
     14 C         140.5515  142.3850  167.9787 C.3     1  UNL1        0.0936
     15 C         140.3501  143.2440  169.1917 C.3     1  UNL1        0.0385
     16 C         140.2650  142.8262  170.6299 C.3     1  UNL1        0.0704
     17 N         140.3605  141.4463  171.2101 N.3     1  UNL1       -0.2960
     18 C         140.5645  140.1433  170.4955 C.3     1  UNL1        0.0903
     19 C         140.7235  139.8985  169.0241 C.3     1  UNL1        0.1092
     20 H         139.4865  141.3231  171.7215 H       1  UNL1        0.1233
     21 C         138.6528  138.8965  166.3590 C.1     1  UNL1        0.1047
     22 N         137.3520  138.3821  166.9009 N.1     1  UNL1       -0.1907
     23 C         143.2554  141.4481  165.9280 C.3     1  UNL1        0.1842
     24 C         143.7252  145.4351  163.8950 C.3     1  UNL1        0.0900
     25 C         143.5686  144.1061  164.5726 C.1     1  UNL1       -0.0881
     26 C         143.4121  142.7771  165.2504 C.1     1  UNL1       -0.0656
     27 C         142.9749  138.7134  160.7094 C.3     1  UNL1        0.1411
     28 C         142.3497  139.0012  159.3767 C.ar    1  UNL1        0.0132
     29 C         141.7244  140.3393  159.1148 C.ar    1  UNL1        0.0854
     30 C         141.0992  140.6271  157.7821 C.ar    1  UNL1        0.1088
     31 N         141.0992  139.5768  156.7111 N.ar    1  UNL1       -0.2432
     32 C         141.7245  138.2387  156.9730 C.ar    1  UNL1        0.0811
     33 C         141.7245  137.1884  155.9020 C.ar    1  UNL1        0.0191
     34 C         142.3498  135.8503  156.1639 C.ar    1  UNL1        0.0015
     35 C         142.9750  135.5625  157.4966 C.ar    1  UNL1        0.0001
     36 C         142.9750  136.6128  158.5675 C.ar    1  UNL1        0.0013
     37 C         142.3497  137.9509  158.3057 C.ar    1  UNL1        0.0162
     38 C         141.7244  141.3896  160.1858 C.1     1  UNL1        0.1017
     39 N         141.7243  142.4398  161.2567 N.1     1  UNL1       -0.1908
@<TRIPOS>BOND
     1    24    25    1
     2    25    26    3
     3    26    23    1
     4    23     1    1
     5     1     2   ar
     6     2    13    1
     7    13    14    1
     8    14    15    1
     9    15    16    1
    10    16    17    1
    11    17    18    1
    12    18    19    1
    13     2     3   ar
    14     3    21    1
    15    21    22    3
    16     3     4   ar
    17     4     5   ar
    18     5     6   ar
    19     6     7    2
    20     6     8   ar
    21     8    27    1
    22    27    28    1
    23    28    29   ar
    24    29    38    1
    25    38    39    3
    26    29    30   ar
    27    30    31   ar
    28    31    32   ar
    29    32    33   ar
    30    33    34   ar
    31    34    35   ar
    32    35    36   ar
    33    36    37   ar
    34     8     9   ar
    35     9    10    2
    36     9    11   ar
    37    11    12    1
    38     5     1   ar
    39    37    28   ar
    40    19    13    1
    41    11     4   ar
    42    37    32   ar
    43    17    20    1
@<TRIPOS>MOLECULE
*****
 39 43 0 0 0
SMALL
GASTEIGER

@<TRIPOS>ATOM
      1 N         141.0342  142.7616  161.2761 N.ar    1  UNL1       -0.2986
      2 C         140.5348  142.7639  159.8616 C.ar    1  UNL1        0.1245
      3 C         139.4417  141.7424  159.7543 C.ar    1  UNL1        0.1157
      4 C         139.2655  141.1086  161.1023 C.ar    1  UNL1        0.0967
      5 C         140.2497  141.7385  162.0428 C.ar    1  UNL1        0.1354
      6 C         140.3045  141.2992  163.4760 C.ar    1  UNL1        0.2818
      7 O         141.2887  141.9291  164.4165 O.2     1  UNL1       -0.2652
      8 N         139.3750  140.2299  163.9687 N.ar    1  UNL1       -0.2433
      9 C         138.3908  139.6000  163.0281 C.ar    1  UNL1        0.3342
     10 O         137.8344  139.0345  163.1060 O.2     1  UNL1       -0.2462
     11 N         138.3360  140.0394  161.5950 N.ar    1  UNL1       -0.2770
     12 C         137.3518  139.4095  160.6545 C.3     1  UNL1        0.1351
     13 N         141.0399  143.6350  158.7497 N.pl3   1  UNL1       -0.2925
     14 C         140.3147  144.9343  158.5602 C.3     1  UNL1        0.0936
     15 C         140.5737  146.0111  157.5486 C.3     1  UNL1        0.0385
     16 C         141.6221  146.0545  156.4766 C.3     1  UNL1        0.0704
     17 N         142.6703  145.0319  156.1515 N.3     1  UNL1       -0.2960
     18 C         142.9289  143.7133  156.8181 C.3     1  UNL1        0.0903
     19 C         142.2033  143.0916  157.9745 C.3     1  UNL1        0.1092
     20 H         143.5531  145.5364  156.2320 H       1  UNL1        0.1233
     21 C         138.6617  141.4125  158.5162 C.1     1  UNL1        0.1047
     22 N         137.8816  141.0825  157.2782 N.1     1  UNL1       -0.1907
     23 C         142.1263  143.6298  161.8269 C.3     1  UNL1        0.1842
     24 C         145.8665  141.7585  163.4881 C.3     1  UNL1        0.0900
     25 C         144.6198  142.3823  162.9344 C.1     1  UNL1       -0.0881
     26 C         143.3730  143.0060  162.3806 C.1     1  UNL1       -0.0656
     27 C         139.4297  139.7905  165.4018 C.3     1  UNL1        0.1411
     28 C         140.7518  139.4948  166.0457 C.ar    1  UNL1        0.0132
     29 C         141.6777  138.4882  165.4295 C.ar    1  UNL1        0.0854
     30 C         142.9998  138.1926  166.0734 C.ar    1  UNL1        0.1088
     31 N         143.3961  138.9035  167.3334 N.ar    1  UNL1       -0.2432
     32 C         142.4703  139.9101  167.9495 C.ar    1  UNL1        0.0811
     33 C         142.8665  140.6210  169.2096 C.ar    1  UNL1        0.0191
     34 C         141.9407  141.6276  169.8256 C.ar    1  UNL1        0.0015
     35 C         140.6185  141.9232  169.1818 C.ar    1  UNL1        0.0001
     36 C         140.2223  141.2123  167.9218 C.ar    1  UNL1        0.0013
     37 C         141.1481  140.2057  167.3056 C.ar    1  UNL1        0.0162
     38 C         141.2814  137.7774  164.1695 C.1     1  UNL1        0.1017
     39 N         140.8852  137.0665  162.9096 N.1     1  UNL1       -0.1908
@<TRIPOS>BOND
     1    24    25    1
     2    25    26    3
     3    26    23    1
     4    23     1    1
     5     1     2   ar
     6     2    13    1
     7    13    14    1
     8    14    15    1
     9    15    16    1
    10    16    17    1
    11    17    18    1
    12    18    19    1
    13     2     3   ar
    14     3    21    1
    15    21    22    3
    16     3     4   ar
    17     4     5   ar
    18     5     6   ar
    19     6     7    2
    20     6     8   ar
    21     8    27    1
    22    27    28    1
    23    28    29   ar
    24    29    38    1
    25    38    39    3
    26    29    30   ar
    27    30    31   ar
    28    31    32   ar
    29    32    33   ar
    30    33    34   ar
    31    34    35   ar
    32    35    36   ar
    33    36    37   ar
    34     8     9   ar
    35     9    10    2
    36     9    11   ar
    37    11    12    1
    38     5     1   ar
    39    37    28   ar
    40    19    13    1
    41    11     4   ar
    42    37    32   ar
    43    17    20    1
@<TRIPOS>MOLECULE
*****
 39 43 0 0 0
SMALL
GASTEIGER

@<TRIPOS>ATOM
      1 N         139.2092  141.1106  160.5001 N.ar    1  UNL1       -0.2986
      2 C         139.2694  142.5128  159.9707 C.ar    1  UNL1        0.1245
      3 C         139.4808  143.4381  161.1321 C.ar    1  UNL1        0.1157
      4 C         139.5512  142.6079  162.3794 C.ar    1  UNL1        0.0967
      5 C         139.3833  141.1694  161.9888 C.ar    1  UNL1        0.1354
      6 C         139.4108  140.0989  163.0392 C.ar    1  UNL1        0.2818
      7 O         139.2429  138.6604  162.6485 O.2     1  UNL1       -0.2652
      8 N         139.6061  140.4668  164.4801 N.ar    1  UNL1       -0.2433
      9 C         139.7739  141.9054  164.8707 C.ar    1  UNL1        0.3342
     10 O         139.8851  142.2813  165.5649 O.2     1  UNL1       -0.2462
     11 N         139.7465  142.9758  163.8204 N.ar    1  UNL1       -0.2770
     12 C         139.9144  144.4143  164.2110 C.3     1  UNL1        0.1351
     13 N         139.1408  142.9183  158.5322 N.pl3   1  UNL1       -0.2925
     14 C         140.3621  143.5363  157.9186 C.3     1  UNL1        0.0936
     15 C         140.5522  144.0409  156.5189 C.3     1  UNL1        0.0385
     16 C         139.5679  144.0521  155.3870 C.3     1  UNL1        0.0704
     17 N         138.1504  143.5615  155.3754 N.3     1  UNL1       -0.2960
     18 C         137.3672  142.9385  156.4927 C.3     1  UNL1        0.0903
     19 C         137.8079  142.6523  157.8977 C.3     1  UNL1        0.1092
     20 H         138.1265  142.8673  154.6285 H       1  UNL1        0.1233
     21 C         139.6007  144.9315  161.0592 C.1     1  UNL1        0.1047
     22 N         139.7205  146.4250  160.9863 N.1     1  UNL1       -0.1907
     23 C         139.0098  139.8678  159.6841 C.3     1  UNL1        0.1842
     24 C         142.5613  137.7404  157.9204 C.3     1  UNL1        0.0900
     25 C         141.3775  138.4495  158.5083 C.1     1  UNL1       -0.0881
     26 C         140.1936  139.1587  159.0962 C.1     1  UNL1       -0.0656
     27 C         139.6335  139.3964  165.5305 C.3     1  UNL1        0.1411
     28 C         140.7944  139.3027  166.4758 C.ar    1  UNL1        0.0132
     29 C         142.1287  138.8290  165.9803 C.ar    1  UNL1        0.0854
     30 C         143.2896  138.7353  166.9256 C.ar    1  UNL1        0.1088
     31 N         143.1162  139.1153  168.3663 N.ar    1  UNL1       -0.2432
     32 C         141.7820  139.5890  168.8617 C.ar    1  UNL1        0.0811
     33 C         141.6086  139.9691  170.3024 C.ar    1  UNL1        0.0191
     34 C         140.2744  140.4427  170.7978 C.ar    1  UNL1        0.0015
     35 C         139.1135  140.5364  169.8525 C.ar    1  UNL1        0.0001
     36 C         139.2868  140.1564  168.4119 C.ar    1  UNL1        0.0013
     37 C         140.6211  139.6827  167.9164 C.ar    1  UNL1        0.0162
     38 C         142.3020  138.4490  164.5397 C.1     1  UNL1        0.1017
     39 N         142.4753  138.0690  163.0990 N.1     1  UNL1       -0.1908
@<TRIPOS>BOND
     1    24    25    1
     2    25    26    3
     3    26    23    1
     4    23     1    1
     5     1     2   ar
     6     2    13    1
     7    13    14    1
     8    14    15    1
     9    15    16    1
    10    16    17    1
    11    17    18    1
    12    18    19    1
    13     2     3   ar
    14     3    21    1
    15    21    22    3
    16     3     4   ar
    17     4     5   ar
    18     5     6   ar
    19     6     7    2
    20     6     8   ar
    21     8    27    1
    22    27    28    1
    23    28    29   ar
    24    29    38    1
    25    38    39    3
    26    29    30   ar
    27    30    31   ar
    28    31    32   ar
    29    32    33   ar
    30    33    34   ar
    31    34    35   ar
    32    35    36   ar
    33    36    37   ar
    34     8     9   ar
    35     9    10    2
    36     9    11   ar
    37    11    12    1
    38     5     1   ar
    39    37    28   ar
    40    19    13    1
    41    11     4   ar
    42    37    32   ar
    43    17    20    1
@<TRIPOS>MOLECULE
*****
 39 43 0 0 0
SMALL
GASTEIGER

@<TRIPOS>ATOM
      1 N         143.0470  140.4037  160.2964 N.ar    1  UNL1       -0.2986
      2 C         142.8498  141.6498  159.4850 C.ar    1  UNL1        0.1245
      3 C         142.2481  142.6941  160.3780 C.ar    1  UNL1        0.1157
      4 C         142.0733  142.0933  161.7413 C.ar    1  UNL1        0.0967
      5 C         142.5671  140.6779  161.6908 C.ar    1  UNL1        0.1354
      6 C         142.5159  139.8213  162.9212 C.ar    1  UNL1        0.2818
      7 O         143.0096  138.4058  162.8707 O.2     1  UNL1       -0.2652
      8 N         141.9709  140.3803  164.2020 N.ar    1  UNL1       -0.2433
      9 C         141.4772  141.7959  164.2525 C.ar    1  UNL1        0.3342
     10 O         141.1633  142.2528  164.8254 O.2     1  UNL1       -0.2462
     11 N         141.5284  142.6524  163.0221 N.ar    1  UNL1       -0.2770
     12 C         141.0346  144.0678  163.0726 C.3     1  UNL1        0.1351
     13 N         143.1940  141.8216  158.0351 N.pl3   1  UNL1       -0.2925
     14 C         142.0448  141.7183  157.0767 C.3     1  UNL1        0.0936
     15 C         142.0595  141.8418  155.5819 C.3     1  UNL1        0.0385
     16 C         143.2273  142.0991  154.6763 C.3     1  UNL1        0.0704
     17 N         144.6686  142.2964  155.0417 N.3     1  UNL1       -0.2960
     18 C         145.2982  142.2851  156.4032 C.3     1  UNL1        0.0903
     19 C         144.6420  142.0738  157.7354 C.3     1  UNL1        0.1092
     20 H         144.9068  143.2108  154.6576 H       1  UNL1        0.1233
     21 C         141.8849  144.0934  159.9780 C.1     1  UNL1        0.1047
     22 N         141.5217  145.4928  159.5781 N.1     1  UNL1       -0.1907
     23 C         143.6229  139.1106  159.8004 C.3     1  UNL1        0.1842
     24 C         141.5213  136.8098  156.5538 C.3     1  UNL1        0.0900
     25 C         142.2219  137.5767  157.6360 C.1     1  UNL1       -0.0881
     26 C         142.9224  138.3437  158.7182 C.1     1  UNL1       -0.0656
     27 C         141.9197  139.5239  165.4324 C.3     1  UNL1        0.1411
     28 C         140.6312  139.3676  166.1843 C.ar    1  UNL1        0.0132
     29 C         139.4992  138.5913  165.5793 C.ar    1  UNL1        0.0854
     30 C         138.2107  138.4350  166.3313 C.ar    1  UNL1        0.1088
     31 N         138.0543  139.0550  167.6882 N.ar    1  UNL1       -0.2432
     32 C         139.1863  139.8312  168.2931 C.ar    1  UNL1        0.0811
     33 C         139.0298  140.4513  169.6501 C.ar    1  UNL1        0.0191
     34 C         140.1618  141.2275  170.2550 C.ar    1  UNL1        0.0015
     35 C         141.4503  141.3838  169.5030 C.ar    1  UNL1        0.0001
     36 C         141.6068  140.7639  168.1462 C.ar    1  UNL1        0.0013
     37 C         140.4748  139.9875  167.5412 C.ar    1  UNL1        0.0162
     38 C         139.6557  137.9713  164.2225 C.1     1  UNL1        0.1017
     39 N         139.8122  137.3513  162.8656 N.1     1  UNL1       -0.1908
@<TRIPOS>BOND
     1    24    25    1
     2    25    26    3
     3    26    23    1
     4    23     1    1
     5     1     2   ar
     6     2    13    1
     7    13    14    1
     8    14    15    1
     9    15    16    1
    10    16    17    1
    11    17    18    1
    12    18    19    1
    13     2     3   ar
    14     3    21    1
    15    21    22    3
    16     3     4   ar
    17     4     5   ar
    18     5     6   ar
    19     6     7    2
    20     6     8   ar
    21     8    27    1
    22    27    28    1
    23    28    29   ar
    24    29    38    1
    25    38    39    3
    26    29    30   ar
    27    30    31   ar
    28    31    32   ar
    29    32    33   ar
    30    33    34   ar
    31    34    35   ar
    32    35    36   ar
    33    36    37   ar
    34     8     9   ar
    35     9    10    2
    36     9    11   ar
    37    11    12    1
    38     5     1   ar
    39    37    28   ar
    40    19    13    1
    41    11     4   ar
    42    37    32   ar
    43    17    20    1
@<TRIPOS>MOLECULE
*****
 39 43 0 0 0
SMALL
GASTEIGER

@<TRIPOS>ATOM
      1 N         140.0275  142.2149  164.6544 N.ar    1  UNL1       -0.2986
      2 C         141.0960  142.3684  165.6959 C.ar    1  UNL1        0.1245
      3 C         142.3203  142.9188  165.0265 C.ar    1  UNL1        0.1157
      4 C         142.0084  143.1055  163.5712 C.ar    1  UNL1        0.0967
      5 C         140.5915  142.6704  163.3412 C.ar    1  UNL1        0.1354
      6 C         139.9977  142.7453  161.9657 C.ar    1  UNL1        0.2818
      7 O         138.5808  142.3102  161.7358 O.2     1  UNL1       -0.2652
      8 N         140.8210  143.2552  160.8202 N.ar    1  UNL1       -0.2433
      9 C         142.2380  143.6903  161.0502 C.ar    1  UNL1        0.3342
     10 O         142.8117  143.9800  160.5786 O.2     1  UNL1       -0.2462
     11 N         142.8317  143.6155  162.4256 N.ar    1  UNL1       -0.2770
     12 C         144.2486  144.0505  162.6556 C.3     1  UNL1        0.1351
     13 N         140.9635  142.0307  167.1515 N.pl3   1  UNL1       -0.2925
     14 C         140.4786  143.1412  168.0356 C.3     1  UNL1        0.0936
     15 C         140.2438  143.1226  169.5170 C.3     1  UNL1        0.0385
     16 C         140.4359  141.9887  170.4801 C.3     1  UNL1        0.0704
     17 N         140.9102  140.5936  170.1997 N.3     1  UNL1       -0.2960
     18 C         141.3096  139.9877  168.8869 C.3     1  UNL1        0.0903
     19 C         141.3333  140.6273  167.5303 C.3     1  UNL1        0.1092
     20 H         140.1574  139.9948  170.5390 H       1  UNL1        0.1233
     21 C         143.6269  143.2283  165.6949 C.1     1  UNL1        0.1047
     22 N         144.9337  143.5377  166.3634 N.1     1  UNL1       -0.1907
     23 C         138.6390  141.6967  164.8854 C.3     1  UNL1        0.1842
     24 C         138.0240  137.4960  166.3774 C.3     1  UNL1        0.0900
     25 C         138.2290  138.8962  165.8801 C.1     1  UNL1       -0.0881
     26 C         138.4340  140.2965  165.3828 C.1     1  UNL1       -0.0656
     27 C         140.2273  143.3301  159.4448 C.3     1  UNL1        0.1411
     28 C         140.8502  142.5630  158.3162 C.ar    1  UNL1        0.0132
     29 C         141.7595  143.2597  157.3478 C.ar    1  UNL1        0.0854
     30 C         142.3824  142.4926  156.2192 C.ar    1  UNL1        0.1088
     31 N         142.0960  141.0289  156.0592 N.ar    1  UNL1       -0.2432
     32 C         141.1867  140.3323  157.0276 C.ar    1  UNL1        0.0811
     33 C         140.9002  138.8686  156.8675 C.ar    1  UNL1        0.0191
     34 C         139.9909  138.1720  157.8359 C.ar    1  UNL1        0.0015
     35 C         139.3680  138.9391  158.9645 C.ar    1  UNL1        0.0001
     36 C         139.6544  140.4028  159.1246 C.ar    1  UNL1        0.0013
     37 C         140.5638  141.0994  158.1561 C.ar    1  UNL1        0.0162
     38 C         142.0459  144.7233  157.5079 C.1     1  UNL1        0.1017
     39 N         142.3324  146.1870  157.6680 N.1     1  UNL1       -0.1908
@<TRIPOS>BOND
     1    24    25    1
     2    25    26    3
     3    26    23    1
     4    23     1    1
     5     1     2   ar
     6     2    13    1
     7    13    14    1
     8    14    15    1
     9    15    16    1
    10    16    17    1
    11    17    18    1
    12    18    19    1
    13     2     3   ar
    14     3    21    1
    15    21    22    3
    16     3     4   ar
    17     4     5   ar
    18     5     6   ar
    19     6     7    2
    20     6     8   ar
    21     8    27    1
    22    27    28    1
    23    28    29   ar
    24    29    38    1
    25    38    39    3
    26    29    30   ar
    27    30    31   ar
    28    31    32   ar
    29    32    33   ar
    30    33    34   ar
    31    34    35   ar
    32    35    36   ar
    33    36    37   ar
    34     8     9   ar
    35     9    10    2
    36     9    11   ar
    37    11    12    1
    38     5     1   ar
    39    37    28   ar
    40    19    13    1
    41    11     4   ar
    42    37    32   ar
    43    17    20    1
@<TRIPOS>MOLECULE
*****
 39 43 0 0 0
SMALL
GASTEIGER

@<TRIPOS>ATOM
      1 N         140.5647  141.8517  164.5296 N.ar    1  UNL1       -0.2986
      2 C         141.9510  141.5930  165.0406 C.ar    1  UNL1        0.1245
      3 C         142.9040  141.7443  163.8921 C.ar    1  UNL1        0.1157
      4 C         142.1066  142.0966  162.6715 C.ar    1  UNL1        0.0967
      5 C         140.6609  142.1630  163.0655 C.ar    1  UNL1        0.1354
      6 C         139.6187  142.4983  162.0401 C.ar    1  UNL1        0.2818
      7 O         138.1729  142.5647  162.4341 O.2     1  UNL1       -0.2652
      8 N         140.0223  142.7673  160.6206 N.ar    1  UNL1       -0.2433
      9 C         141.4682  142.7009  160.2266 C.ar    1  UNL1        0.3342
     10 O         141.8609  142.8097  159.5416 O.2     1  UNL1       -0.2462
     11 N         142.5103  142.3656  161.2520 N.ar    1  UNL1       -0.2770
     12 C         143.9561  142.2992  160.8580 C.3     1  UNL1        0.1351
     13 N         142.3197  141.2441  166.4521 N.pl3   1  UNL1       -0.2925
     14 C         142.6596  142.4033  167.3414 C.3     1  UNL1        0.0936
     15 C         143.0634  142.3869  168.7859 C.3     1  UNL1        0.0385
     16 C         143.2271  141.2073  169.6979 C.3     1  UNL1        0.0704
     17 N         143.0273  139.7528  169.3907 N.3     1  UNL1       -0.2960
     18 C         142.6146  139.1186  168.0955 C.3     1  UNL1        0.0903
     19 C         142.2997  139.7823  166.7877 C.3     1  UNL1        0.1092
     20 H         142.3241  139.4440  170.0619 H       1  UNL1        0.1233
     21 C         144.3930  141.5734  163.9536 C.1     1  UNL1        0.1047
     22 N         145.8820  141.4024  164.0150 N.1     1  UNL1       -0.1907
     23 C         139.3035  141.8071  165.3405 C.3     1  UNL1        0.1842
     24 C         137.6805  137.8575  166.7609 C.3     1  UNL1        0.0900
     25 C         138.2216  139.1740  166.2875 C.1     1  UNL1       -0.0881
     26 C         138.7625  140.4906  165.8140 C.1     1  UNL1       -0.0656
     27 C         138.9802  143.1025  159.5952 C.3     1  UNL1        0.1411
     28 C         138.9625  142.3812  158.2802 C.ar    1  UNL1        0.0132
     29 C         138.4648  140.9681  158.2065 C.ar    1  UNL1        0.0854
     30 C         138.4472  140.2467  156.8915 C.ar    1  UNL1        0.1088
     31 N         138.9272  140.9386  155.6501 N.ar    1  UNL1       -0.2432
     32 C         139.4249  142.3517  155.7238 C.ar    1  UNL1        0.0811
     33 C         139.9049  143.0436  154.4824 C.ar    1  UNL1        0.0191
     34 C         140.4025  144.4566  154.5561 C.ar    1  UNL1        0.0015
     35 C         140.4202  145.1780  155.8711 C.ar    1  UNL1        0.0001
     36 C         139.9402  144.4862  157.1125 C.ar    1  UNL1        0.0013
     37 C         139.4425  143.0730  157.0388 C.ar    1  UNL1        0.0162
     38 C         137.9849  140.2763  159.4479 C.1     1  UNL1        0.1017
     39 N         137.5049  139.5845  160.6892 N.1     1  UNL1       -0.1908
@<TRIPOS>BOND
     1    24    25    1
     2    25    26    3
     3    26    23    1
     4    23     1    1
     5     1     2   ar
     6     2    13    1
     7    13    14    1
     8    14    15    1
     9    15    16    1
    10    16    17    1
    11    17    18    1
    12    18    19    1
    13     2     3   ar
    14     3    21    1
    15    21    22    3
    16     3     4   ar
    17     4     5   ar
    18     5     6   ar
    19     6     7    2
    20     6     8   ar
    21     8    27    1
    22    27    28    1
    23    28    29   ar
    24    29    38    1
    25    38    39    3
    26    29    30   ar
    27    30    31   ar
    28    31    32   ar
    29    32    33   ar
    30    33    34   ar
    31    34    35   ar
    32    35    36   ar
    33    36    37   ar
    34     8     9   ar
    35     9    10    2
    36     9    11   ar
    37    11    12    1
    38     5     1   ar
    39    37    28   ar
    40    19    13    1
    41    11     4   ar
    42    37    32   ar
    43    17    20    1
