@<TRIPOS>MOLECULE
*****
 20 21 0 0 0
SMALL
GASTEIGER

@<TRIPOS>ATOM
      1 C         142.2893  141.7305  168.0036 C.3     1  UNL1        0.1895
      2 C         142.8762  140.8098  166.9750 C.ar    1  UNL1        0.0172
      3 C         143.3965  141.3642  165.6819 C.ar    1  UNL1       -0.0008
      4 C         143.9834  140.4436  164.6534 C.ar    1  UNL1       -0.0002
      5 C         144.0500  138.9686  164.9178 C.ar    1  UNL1       -0.0000
      6 C         143.5298  138.4142  166.2109 C.ar    1  UNL1       -0.0002
      7 C         142.9429  139.3348  167.2395 C.ar    1  UNL1       -0.0008
      8 C         143.1679  142.3325  169.0598 C.3     1  UNL1        0.0653
      9 C         142.5543  143.0156  170.2459 C.3     1  UNL1        0.0727
     10 C         141.2054  141.0832  171.3397 C.3     1  UNL1        0.0859
     11 N         141.2770  142.4936  170.8342 N.3     1  UNL1       -0.2962
     12 H         141.0455  143.1004  171.6208 H       1  UNL1        0.1233
     13 O         140.8237  142.0490  167.9759 O.3     1  UNL1       -0.4750
     14 C         139.8817  141.1789  167.1978 C.ar    1  UNL1        0.1348
     15 C         139.3499  139.9160  167.8079 C.ar    1  UNL1        0.0366
     16 C         138.4079  139.0459  167.0298 C.ar    1  UNL1        0.0031
     17 C         137.9976  139.4388  165.6415 C.ar    1  UNL1       -0.0001
     18 C         138.5293  140.7016  165.0314 C.ar    1  UNL1       -0.0013
     19 C         139.4714  141.5717  165.8095 C.ar    1  UNL1        0.0121
     20 C         140.0032  142.8347  165.1994 C.3     1  UNL1        0.0342
@<TRIPOS>BOND
     1    10    11    1
     2    11     9    1
     3     9     8    1
     4     1     8    1
     5     1    13    1
     6    13    14    1
     7    14    15   ar
     8    15    16   ar
     9    16    17   ar
    10    17    18   ar
    11    18    19   ar
    12    19    20    1
    13     1     2    1
    14     2     3   ar
    15     3     4   ar
    16     4     5   ar
    17     5     6   ar
    18     6     7   ar
    19    19    14   ar
    20     7     2   ar
    21    11    12    1
@<TRIPOS>MOLECULE
*****
 20 21 0 0 0
SMALL
GASTEIGER

@<TRIPOS>ATOM
      1 C         140.4163  139.4007  165.3479 C.3     1  UNL1        0.1895
      2 C         140.6265  139.6592  166.8105 C.ar    1  UNL1        0.0172
      3 C         142.0098  139.6144  167.3888 C.ar    1  UNL1       -0.0008
      4 C         142.2201  139.8729  168.8512 C.ar    1  UNL1       -0.0002
      5 C         141.0471  140.1763  169.7355 C.ar    1  UNL1       -0.0000
      6 C         139.6638  140.2211  169.1572 C.ar    1  UNL1       -0.0002
      7 C         139.4535  139.9626  167.6947 C.ar    1  UNL1       -0.0008
      8 C         140.0684  138.0212  164.8726 C.3     1  UNL1        0.0653
      9 C         141.1304  137.1409  164.2834 C.3     1  UNL1        0.0727
     10 C         140.4940  137.9354  161.8930 C.3     1  UNL1        0.0859
     11 N         141.2522  137.0066  162.7943 N.3     1  UNL1       -0.2962
     12 H         142.2405  137.1186  162.5684 H       1  UNL1        0.1233
     13 O         140.5539  140.5217  164.3608 O.3     1  UNL1       -0.4750
     14 C         139.7079  141.7524  164.5008 C.ar    1  UNL1        0.1348
     15 C         140.2332  142.9427  165.2473 C.ar    1  UNL1        0.0366
     16 C         139.3873  144.1734  165.3874 C.ar    1  UNL1        0.0031
     17 C         138.0159  144.2138  164.7809 C.ar    1  UNL1       -0.0001
     18 C         137.4906  143.0236  164.0344 C.ar    1  UNL1       -0.0013
     19 C         138.3366  141.7929  163.8944 C.ar    1  UNL1        0.0121
     20 C         137.8112  140.6026  163.1478 C.3     1  UNL1        0.0342
@<TRIPOS>BOND
     1    10    11    1
     2    11     9    1
     3     9     8    1
     4     1     8    1
     5     1    13    1
     6    13    14    1
     7    14    15   ar
     8    15    16   ar
     9    16    17   ar
    10    17    18   ar
    11    18    19   ar
    12    19    20    1
    13     1     2    1
    14     2     3   ar
    15     3     4   ar
    16     4     5   ar
    17     5     6   ar
    18     6     7   ar
    19    19    14   ar
    20     7     2   ar
    21    11    12    1
@<TRIPOS>MOLECULE
*****
 20 21 0 0 0
SMALL
GASTEIGER

@<TRIPOS>ATOM
      1 C         143.3253  140.1182  164.6652 C.3     1  UNL1        0.1895
      2 C         143.1173  140.4352  166.1165 C.ar    1  UNL1        0.0172
      3 C         142.9104  139.3255  167.1044 C.ar    1  UNL1       -0.0008
      4 C         142.7024  139.6424  168.5556 C.ar    1  UNL1       -0.0002
      5 C         142.7014  141.0690  169.0191 C.ar    1  UNL1       -0.0000
      6 C         142.9083  142.1787  168.0313 C.ar    1  UNL1       -0.0002
      7 C         143.1163  141.8618  166.5800 C.ar    1  UNL1       -0.0008
      8 C         144.7155  140.0221  164.1102 C.3     1  UNL1        0.0653
      9 C         145.5405  141.2624  163.9349 C.3     1  UNL1        0.0727
     10 C         144.6858  142.7936  162.0178 C.3     1  UNL1        0.0859
     11 N         145.7197  141.8573  162.5695 N.3     1  UNL1       -0.2962
     12 H         146.6020  142.3688  162.5846 H       1  UNL1        0.1233
     13 O         142.1430  139.8975  163.7688 O.3     1  UNL1       -0.4750
     14 C         140.7802  139.6929  164.3616 C.ar    1  UNL1        0.1348
     15 C         139.8897  140.8721  164.6192 C.ar    1  UNL1        0.0366
     16 C         138.5271  140.6675  165.2119 C.ar    1  UNL1        0.0031
     17 C         138.0550  139.2837  165.5470 C.ar    1  UNL1       -0.0001
     18 C         138.9455  138.1046  165.2894 C.ar    1  UNL1       -0.0013
     19 C         140.3081  138.3091  164.6967 C.ar    1  UNL1        0.0121
     20 C         141.1987  137.1299  164.4390 C.3     1  UNL1        0.0342
@<TRIPOS>BOND
     1    10    11    1
     2    11     9    1
     3     9     8    1
     4     1     8    1
     5     1    13    1
     6    13    14    1
     7    14    15   ar
     8    15    16   ar
     9    16    17   ar
    10    17    18   ar
    11    18    19   ar
    12    19    20    1
    13     1     2    1
    14     2     3   ar
    15     3     4   ar
    16     4     5   ar
    17     5     6   ar
    18     6     7   ar
    19    19    14   ar
    20     7     2   ar
    21    11    12    1
@<TRIPOS>MOLECULE
*****
 20 21 0 0 0
SMALL
GASTEIGER

@<TRIPOS>ATOM
      1 C         140.7023  142.3635  167.5094 C.3     1  UNL1        0.1895
      2 C         140.6744  143.0397  166.1707 C.ar    1  UNL1        0.0172
      3 C         141.8640  142.9520  165.2612 C.ar    1  UNL1       -0.0008
      4 C         141.8361  143.6282  163.9226 C.ar    1  UNL1       -0.0002
      5 C         140.6186  144.3920  163.4934 C.ar    1  UNL1       -0.0000
      6 C         139.4290  144.4796  164.4028 C.ar    1  UNL1       -0.0002
      7 C         139.4569  143.8035  165.7414 C.ar    1  UNL1       -0.0008
      8 C         140.3511  143.1351  168.7468 C.3     1  UNL1        0.0653
      9 C         140.3755  142.4580  170.0851 C.3     1  UNL1        0.0727
     10 C         140.0610  139.9683  170.7580 C.3     1  UNL1        0.0859
     11 N         139.4754  141.2876  170.3499 N.3     1  UNL1       -0.2962
     12 H         138.8373  141.5693  171.0941 H       1  UNL1        0.1233
     13 O         141.0813  140.9157  167.6105 O.3     1  UNL1       -0.4750
     14 C         140.3152  139.8840  166.8367 C.ar    1  UNL1        0.1348
     15 C         138.8698  139.6327  167.1488 C.ar    1  UNL1        0.0366
     16 C         138.1038  138.6010  166.3750 C.ar    1  UNL1        0.0031
     17 C         138.7833  137.8207  165.2889 C.ar    1  UNL1       -0.0001
     18 C         140.2287  138.0721  164.9768 C.ar    1  UNL1       -0.0013
     19 C         140.9947  139.1037  165.7506 C.ar    1  UNL1        0.0121
     20 C         142.4402  139.3551  165.4385 C.3     1  UNL1        0.0342
@<TRIPOS>BOND
     1    10    11    1
     2    11     9    1
     3     9     8    1
     4     1     8    1
     5     1    13    1
     6    13    14    1
     7    14    15   ar
     8    15    16   ar
     9    16    17   ar
    10    17    18   ar
    11    18    19   ar
    12    19    20    1
    13     1     2    1
    14     2     3   ar
    15     3     4   ar
    16     4     5   ar
    17     5     6   ar
    18     6     7   ar
    19    19    14   ar
    20     7     2   ar
    21    11    12    1
@<TRIPOS>MOLECULE
*****
 20 21 0 0 0
SMALL
GASTEIGER

@<TRIPOS>ATOM
      1 C         140.4033  139.3714  165.1789 C.3     1  UNL1        0.1895
      2 C         140.7068  139.6213  166.6265 C.ar    1  UNL1        0.0172
      3 C         139.5956  139.9444  167.5809 C.ar    1  UNL1       -0.0008
      4 C         139.8991  140.1943  169.0284 C.ar    1  UNL1       -0.0002
      5 C         141.3138  140.1211  169.5216 C.ar    1  UNL1       -0.0000
      6 C         142.4250  139.7979  168.5672 C.ar    1  UNL1       -0.0002
      7 C         142.1215  139.5480  167.1196 C.ar    1  UNL1       -0.0008
      8 C         140.0059  137.9991  164.7219 C.3     1  UNL1        0.0653
      9 C         141.0510  137.0371  164.2401 C.3     1  UNL1        0.0727
     10 C         142.0651  137.9679  162.0366 C.3     1  UNL1        0.0859
     11 N         141.3184  136.8941  162.7710 N.3     1  UNL1       -0.2962
     12 H         141.8494  136.0315  162.6510 H       1  UNL1        0.1233
     13 O         140.4971  140.4939  164.1883 O.3     1  UNL1       -0.4750
     14 C         139.7468  141.7704  164.4280 C.ar    1  UNL1        0.1348
     15 C         138.2849  141.8535  164.1027 C.ar    1  UNL1        0.0366
     16 C         137.5346  143.1300  164.3424 C.ar    1  UNL1        0.0031
     17 C         138.2462  144.3235  164.9075 C.ar    1  UNL1       -0.0001
     18 C         139.7081  144.2404  165.2328 C.ar    1  UNL1       -0.0013
     19 C         140.4584  142.9639  164.9931 C.ar    1  UNL1        0.0121
     20 C         141.9204  142.8807  165.3184 C.3     1  UNL1        0.0342
@<TRIPOS>BOND
     1    10    11    1
     2    11     9    1
     3     9     8    1
     4     1     8    1
     5     1    13    1
     6    13    14    1
     7    14    15   ar
     8    15    16   ar
     9    16    17   ar
    10    17    18   ar
    11    18    19   ar
    12    19    20    1
    13     1     2    1
    14     2     3   ar
    15     3     4   ar
    16     4     5   ar
    17     5     6   ar
    18     6     7   ar
    19    19    14   ar
    20     7     2   ar
    21    11    12    1
@<TRIPOS>MOLECULE
*****
 20 21 0 0 0
SMALL
GASTEIGER

@<TRIPOS>ATOM
      1 C         140.5468  140.8885  166.9265 C.3     1  UNL1        0.1895
      2 C         141.2336  141.6211  168.0409 C.ar    1  UNL1        0.0172
      3 C         142.6415  141.2655  168.4166 C.ar    1  UNL1       -0.0008
      4 C         143.3283  141.9980  169.5309 C.ar    1  UNL1       -0.0002
      5 C         142.6070  143.0861  170.2696 C.ar    1  UNL1       -0.0000
      6 C         141.1990  143.4417  169.8939 C.ar    1  UNL1       -0.0002
      7 C         140.5123  142.7092  168.7796 C.ar    1  UNL1       -0.0008
      8 C         139.3842  139.9889  167.2248 C.3     1  UNL1        0.0653
      9 C         138.5485  139.4466  166.1034 C.3     1  UNL1        0.0727
     10 C         138.1443  140.1237  163.6279 C.3     1  UNL1        0.0859
     11 N         137.9517  140.3810  165.0931 N.3     1  UNL1       -0.2962
     12 H         136.9456  140.3919  165.2603 H       1  UNL1        0.1233
     13 O         141.0228  141.0556  165.5139 O.3     1  UNL1       -0.4750
     14 C         141.2757  142.4286  164.9651 C.ar    1  UNL1        0.1348
     15 C         140.1244  143.3489  164.6870 C.ar    1  UNL1        0.0366
     16 C         140.3773  144.7218  164.1382 C.ar    1  UNL1        0.0031
     17 C         141.7816  145.1743  163.8676 C.ar    1  UNL1       -0.0001
     18 C         142.9329  144.2540  164.1458 C.ar    1  UNL1       -0.0013
     19 C         142.6800  142.8811  164.6945 C.ar    1  UNL1        0.0121
     20 C         143.8313  141.9607  164.9727 C.3     1  UNL1        0.0342
@<TRIPOS>BOND
     1    10    11    1
     2    11     9    1
     3     9     8    1
     4     1     8    1
     5     1    13    1
     6    13    14    1
     7    14    15   ar
     8    15    16   ar
     9    16    17   ar
    10    17    18   ar
    11    18    19   ar
    12    19    20    1
    13     1     2    1
    14     2     3   ar
    15     3     4   ar
    16     4     5   ar
    17     5     6   ar
    18     6     7   ar
    19    19    14   ar
    20     7     2   ar
    21    11    12    1
@<TRIPOS>MOLECULE
*****
 20 21 0 0 0
SMALL
GASTEIGER

@<TRIPOS>ATOM
      1 C         138.6821  142.6356  164.8879 C.3     1  UNL1        0.1895
      2 C         140.0920  142.4868  165.3782 C.ar    1  UNL1        0.0172
      3 C         141.2392  142.6670  164.4287 C.ar    1  UNL1       -0.0008
      4 C         142.6489  142.5182  164.9189 C.ar    1  UNL1       -0.0002
      5 C         142.9115  142.1892  166.3586 C.ar    1  UNL1       -0.0000
      6 C         141.7643  142.0091  167.3081 C.ar    1  UNL1       -0.0002
      7 C         140.3545  142.1579  166.8179 C.ar    1  UNL1       -0.0008
      8 C         138.1238  144.0004  164.6130 C.3     1  UNL1        0.0653
      9 C         137.7258  144.3808  163.2177 C.3     1  UNL1        0.0727
     10 C         138.8977  143.2383  161.1999 C.3     1  UNL1        0.0859
     11 N         137.7258  143.3481  162.1298 N.3     1  UNL1       -0.2962
     12 H         137.6252  142.4408  162.5850 H       1  UNL1        0.1233
     13 O         137.8307  141.4196  164.6725 O.3     1  UNL1       -0.4750
     14 C         138.4595  140.1337  164.2239 C.ar    1  UNL1        0.1348
     15 C         138.9536  139.9919  162.8148 C.ar    1  UNL1        0.0366
     16 C         139.5823  138.7060  162.3663 C.ar    1  UNL1        0.0031
     17 C         139.7169  137.5619  163.3270 C.ar    1  UNL1       -0.0001
     18 C         139.2228  137.7037  164.7361 C.ar    1  UNL1       -0.0013
     19 C         138.5941  138.9896  165.1846 C.ar    1  UNL1        0.0121
     20 C         138.1000  139.1314  166.5938 C.3     1  UNL1        0.0342
@<TRIPOS>BOND
     1    10    11    1
     2    11     9    1
     3     9     8    1
     4     1     8    1
     5     1    13    1
     6    13    14    1
     7    14    15   ar
     8    15    16   ar
     9    16    17   ar
    10    17    18   ar
    11    18    19   ar
    12    19    20    1
    13     1     2    1
    14     2     3   ar
    15     3     4   ar
    16     4     5   ar
    17     5     6   ar
    18     6     7   ar
    19    19    14   ar
    20     7     2   ar
    21    11    12    1
@<TRIPOS>MOLECULE
*****
 20 21 0 0 0
SMALL
GASTEIGER

@<TRIPOS>ATOM
      1 C         143.2279  140.8795  164.9124 C.3     1  UNL1        0.1895
      2 C         143.0553  140.9262  166.4017 C.ar    1  UNL1        0.0172
      3 C         142.6968  139.6794  167.1547 C.ar    1  UNL1       -0.0008
      4 C         142.5242  139.7261  168.6439 C.ar    1  UNL1       -0.0002
      5 C         142.7102  141.0196  169.3803 C.ar    1  UNL1       -0.0000
      6 C         143.0687  142.2664  168.6274 C.ar    1  UNL1       -0.0002
      7 C         143.2413  142.2197  167.1381 C.ar    1  UNL1       -0.0008
      8 C         144.5777  140.5973  164.3222 C.3     1  UNL1        0.0653
      9 C         145.4824  141.7320  163.9427 C.3     1  UNL1        0.0727
     10 C         144.7213  142.5206  161.5871 C.3     1  UNL1        0.0859
     11 N         145.7905  141.9948  162.4983 N.3     1  UNL1       -0.2962
     12 H         146.5535  142.6714  162.4784 H       1  UNL1        0.1233
     13 O         142.0506  141.1150  164.0132 O.3     1  UNL1       -0.4750
     14 C         141.2045  142.3409  164.1909 C.ar    1  UNL1        0.1348
     15 C         141.6522  143.6512  163.6144 C.ar    1  UNL1        0.0366
     16 C         140.8062  144.8770  163.7921 C.ar    1  UNL1        0.0031
     17 C         139.5123  144.7924  164.5463 C.ar    1  UNL1       -0.0001
     18 C         139.0646  143.4820  165.1229 C.ar    1  UNL1       -0.0013
     19 C         139.9107  142.2563  164.9452 C.ar    1  UNL1        0.0121
     20 C         139.4629  140.9458  165.5217 C.3     1  UNL1        0.0342
@<TRIPOS>BOND
     1    10    11    1
     2    11     9    1
     3     9     8    1
     4     1     8    1
     5     1    13    1
     6    13    14    1
     7    14    15   ar
     8    15    16   ar
     9    16    17   ar
    10    17    18   ar
    11    18    19   ar
    12    19    20    1
    13     1     2    1
    14     2     3   ar
    15     3     4   ar
    16     4     5   ar
    17     5     6   ar
    18     6     7   ar
    19    19    14   ar
    20     7     2   ar
    21    11    12    1
@<TRIPOS>MOLECULE
*****
 20 21 0 0 0
SMALL
GASTEIGER

@<TRIPOS>ATOM
      1 C         141.7623  142.5084  166.4479 C.3     1  UNL1        0.1895
      2 C         140.9380  141.9708  167.5801 C.ar    1  UNL1        0.0172
      3 C         140.7025  142.8100  168.8008 C.ar    1  UNL1       -0.0008
      4 C         139.8783  142.2724  169.9329 C.ar    1  UNL1       -0.0002
      5 C         139.2896  140.8957  169.8442 C.ar    1  UNL1       -0.0000
      6 C         139.5251  140.0565  168.6235 C.ar    1  UNL1       -0.0002
      7 C         140.3493  140.5940  167.4914 C.ar    1  UNL1       -0.0008
      8 C         143.2245  142.1847  166.3650 C.3     1  UNL1        0.0653
      9 C         144.0126  142.5801  165.1516 C.3     1  UNL1        0.0727
     10 C         143.9347  144.4010  163.3000 C.3     1  UNL1        0.0859
     11 N         144.0880  144.0215  164.7431 N.3     1  UNL1       -0.2962
     12 H         143.3551  144.5116  165.2559 H       1  UNL1        0.1233
     13 O         141.1242  143.3698  165.3987 O.3     1  UNL1       -0.4750
     14 C         139.9046  142.8864  164.6713 C.ar    1  UNL1        0.1348
     15 C         139.9682  141.6315  163.8520 C.ar    1  UNL1        0.0366
     16 C         138.7487  141.1482  163.1246 C.ar    1  UNL1        0.0031
     17 C         137.4656  141.9196  163.2165 C.ar    1  UNL1       -0.0001
     18 C         137.4020  143.1745  164.0358 C.ar    1  UNL1       -0.0013
     19 C         138.6215  143.6578  164.7632 C.ar    1  UNL1        0.0121
     20 C         138.5579  144.9128  165.5825 C.3     1  UNL1        0.0342
@<TRIPOS>BOND
     1    10    11    1
     2    11     9    1
     3     9     8    1
     4     1     8    1
     5     1    13    1
     6    13    14    1
     7    14    15   ar
     8    15    16   ar
     9    16    17   ar
    10    17    18   ar
    11    18    19   ar
    12    19    20    1
    13     1     2    1
    14     2     3   ar
    15     3     4   ar
    16     4     5   ar
    17     5     6   ar
    18     6     7   ar
    19    19    14   ar
    20     7     2   ar
    21    11    12    1
