@<TRIPOS>MOLECULE
*****
 18 19 0 0 0
SMALL
GASTEIGER

@<TRIPOS>ATOM
      1 C         143.0307  141.2179  166.6492 C.3     1  UNL1        0.1110
      2 C         143.4696  142.6035  166.2787 C.3     1  UNL1        0.0320
      3 C         144.2892  142.8252  165.0421 C.3     1  UNL1        0.0730
      4 N         144.6700  141.6611  164.1760 N.3     1  UNL1       -0.2715
      5 C         145.4896  141.8827  162.9395 C.3     1  UNL1        0.0896
      6 C         144.2311  140.2755  164.5465 C.3     1  UNL1        0.0730
      7 C         143.4115  140.0538  165.7831 C.3     1  UNL1        0.0320
      8 C         142.4244  141.9944  167.7804 C.ar    1  UNL1       -0.0127
      9 C         143.2553  142.3466  168.9785 C.ar    1  UNL1       -0.0038
     10 C         142.6490  143.1231  170.1096 C.ar    1  UNL1       -0.0003
     11 C         141.2118  143.5472  170.0426 C.ar    1  UNL1       -0.0000
     12 C         140.3809  143.1950  168.8445 C.ar    1  UNL1       -0.0003
     13 C         140.9872  142.4186  167.7134 C.ar    1  UNL1       -0.0038
     14 C         142.3813  140.1019  167.4126 C.2     1  UNL1        0.3198
     15 O         141.1282  139.4649  166.8889 O.2     1  UNL1       -0.2498
     16 O         142.9848  139.6229  168.6995 O.3     1  UNL1       -0.4483
     17 C         140.9670  139.7506  170.3311 C.3     1  UNL1        0.0513
     18 C         142.1165  138.9864  169.7440 C.3     1  UNL1        0.2086
@<TRIPOS>BOND
     1    17    18    1
     2    18    16    1
     3    16    14    1
     4    14    15    2
     5    14     1    1
     6     1     8    1
     7     8     9   ar
     8     9    10   ar
     9    10    11   ar
    10    11    12   ar
    11    12    13   ar
    12     1     2    1
    13     2     3    1
    14     3     4    1
    15     4     5    1
    16     4     6    1
    17     6     7    1
    18     7     1    1
    19    13     8   ar
@<TRIPOS>MOLECULE
*****
 18 19 0 0 0
SMALL
GASTEIGER

@<TRIPOS>ATOM
      1 C         139.1735  140.6965  165.7759 C.3     1  UNL1        0.1110
      2 C         139.8469  142.0247  165.9552 C.3     1  UNL1        0.0320
      3 C         139.4282  143.1969  165.1181 C.3     1  UNL1        0.0730
      4 N         138.3361  143.0408  164.1017 N.3     1  UNL1       -0.2715
      5 C         137.9174  144.2129  163.2647 C.3     1  UNL1        0.0896
      6 C         137.6627  141.7125  163.9225 C.3     1  UNL1        0.0730
      7 C         138.0814  140.5403  164.7595 C.3     1  UNL1        0.0320
      8 C         140.1494  140.3494  166.8609 C.ar    1  UNL1       -0.0127
      9 C         139.6842  140.2456  168.2831 C.ar    1  UNL1       -0.0038
     10 C         140.6601  139.8985  169.3680 C.ar    1  UNL1       -0.0003
     11 C         142.1013  139.6553  169.0308 C.ar    1  UNL1       -0.0000
     12 C         142.5666  139.7591  167.6086 C.ar    1  UNL1       -0.0003
     13 C         141.5907  140.1062  166.5237 C.ar    1  UNL1       -0.0038
     14 C         138.8391  139.2476  165.9735 C.2     1  UNL1        0.3198
     15 O         137.5175  138.8570  166.5659 O.2     1  UNL1       -0.2498
     16 O         139.8261  138.1894  165.5785 O.3     1  UNL1       -0.4483
     17 C         141.1229  137.2004  163.5562 C.3     1  UNL1        0.0513
     18 C         139.8361  137.6592  164.1754 C.3     1  UNL1        0.2086
@<TRIPOS>BOND
     1    17    18    1
     2    18    16    1
     3    16    14    1
     4    14    15    2
     5    14     1    1
     6     1     8    1
     7     8     9   ar
     8     9    10   ar
     9    10    11   ar
    10    11    12   ar
    11    12    13   ar
    12     1     2    1
    13     2     3    1
    14     3     4    1
    15     4     5    1
    16     4     6    1
    17     6     7    1
    18     7     1    1
    19    13     8   ar
@<TRIPOS>MOLECULE
*****
 18 19 0 0 0
SMALL
GASTEIGER

@<TRIPOS>ATOM
      1 C         142.9204  141.1103  166.6062 C.3     1  UNL1        0.1110
      2 C         143.3859  142.4900  166.2462 C.3     1  UNL1        0.0320
      3 C         144.2160  142.7041  165.0153 C.3     1  UNL1        0.0730
      4 N         144.5805  141.5384  164.1444 N.3     1  UNL1       -0.2715
      5 C         145.4106  141.7525  162.9135 C.3     1  UNL1        0.0896
      6 C         144.1150  140.1587  164.5045 C.3     1  UNL1        0.0730
      7 C         143.2849  139.9446  165.7354 C.3     1  UNL1        0.0320
      8 C         142.3220  141.8910  167.7388 C.ar    1  UNL1       -0.0127
      9 C         140.9715  142.5246  167.5818 C.ar    1  UNL1       -0.0038
     10 C         140.3731  143.3052  168.7143 C.ar    1  UNL1       -0.0003
     11 C         141.1253  143.4522  170.0038 C.ar    1  UNL1       -0.0000
     12 C         142.4758  142.8186  170.1607 C.ar    1  UNL1       -0.0003
     13 C         143.0741  142.0380  169.0282 C.ar    1  UNL1       -0.0038
     14 C         142.2470  140.0017  167.3596 C.2     1  UNL1        0.3198
     15 O         143.0711  138.9691  168.0698 O.2     1  UNL1       -0.2498
     16 O         140.7496  139.9258  167.4028 O.3     1  UNL1       -0.4483
     17 C         138.4982  139.2492  166.2968 C.3     1  UNL1        0.0513
     18 C         139.9955  139.3271  166.2525 C.3     1  UNL1        0.2086
@<TRIPOS>BOND
     1    17    18    1
     2    18    16    1
     3    16    14    1
     4    14    15    2
     5    14     1    1
     6     1     8    1
     7     8     9   ar
     8     9    10   ar
     9    10    11   ar
    10    11    12   ar
    11    12    13   ar
    12     1     2    1
    13     2     3    1
    14     3     4    1
    15     4     5    1
    16     4     6    1
    17     6     7    1
    18     7     1    1
    19    13     8   ar
@<TRIPOS>MOLECULE
*****
 18 19 0 0 0
SMALL
GASTEIGER

@<TRIPOS>ATOM
      1 C         140.0193  141.6534  166.6450 C.3     1  UNL1        0.1110
      2 C         140.6042  142.7477  167.4878 C.3     1  UNL1        0.0320
      3 C         140.8509  142.5181  168.9494 C.3     1  UNL1        0.0730
      4 N         140.5127  141.1942  169.5683 N.3     1  UNL1       -0.2715
      5 C         140.7595  140.9646  171.0299 C.3     1  UNL1        0.0896
      6 C         139.9278  140.0999  168.7255 C.3     1  UNL1        0.0730
      7 C         139.6811  140.3294  167.2639 C.3     1  UNL1        0.0320
      8 C         140.1728  142.7267  165.6084 C.ar    1  UNL1       -0.0127
      9 C         139.1953  143.8631  165.5550 C.ar    1  UNL1       -0.0038
     10 C         139.3489  144.9364  164.5184 C.ar    1  UNL1       -0.0003
     11 C         140.4800  144.8732  163.5353 C.ar    1  UNL1       -0.0000
     12 C         141.4575  143.7367  163.5887 C.ar    1  UNL1       -0.0003
     13 C         141.3039  142.6635  164.6252 C.ar    1  UNL1       -0.0038
     14 C         139.4877  140.9318  165.4422 C.2     1  UNL1        0.3198
     15 O         140.3397  139.9169  164.7392 O.2     1  UNL1       -0.2498
     16 O         138.1042  141.2250  164.9424 O.3     1  UNL1       -0.4483
     17 C         137.8156  142.1140  162.5183 C.3     1  UNL1        0.0513
     18 C         137.7600  140.9835  163.5025 C.3     1  UNL1        0.2086
@<TRIPOS>BOND
     1    17    18    1
     2    18    16    1
     3    16    14    1
     4    14    15    2
     5    14     1    1
     6     1     8    1
     7     8     9   ar
     8     9    10   ar
     9    10    11   ar
    10    11    12   ar
    11    12    13   ar
    12     1     2    1
    13     2     3    1
    14     3     4    1
    15     4     5    1
    16     4     6    1
    17     6     7    1
    18     7     1    1
    19    13     8   ar
@<TRIPOS>MOLECULE
*****
 18 19 0 0 0
SMALL
GASTEIGER

@<TRIPOS>ATOM
      1 C         140.3397  140.9643  167.2814 C.3     1  UNL1        0.1110
      2 C         140.4064  139.9638  168.3969 C.3     1  UNL1        0.0320
      3 C         140.9072  140.3795  169.7483 C.3     1  UNL1        0.0730
      4 N         141.3413  141.7959  169.9842 N.3     1  UNL1       -0.2715
      5 C         141.8421  142.2116  171.3356 C.3     1  UNL1        0.0896
      6 C         141.2746  142.7964  168.8687 C.3     1  UNL1        0.0730
      7 C         140.7738  142.3806  167.5172 C.3     1  UNL1        0.0320
      8 C         139.8197  139.7488  166.5726 C.ar    1  UNL1       -0.0127
      9 C         140.6409  139.0979  165.4993 C.ar    1  UNL1       -0.0038
     10 C         140.1209  137.8825  164.7905 C.ar    1  UNL1       -0.0003
     11 C         138.7797  137.3181  165.1550 C.ar    1  UNL1       -0.0000
     12 C         137.9586  137.9691  166.2283 C.ar    1  UNL1       -0.0003
     13 C         138.4786  139.1844  166.9371 C.ar    1  UNL1       -0.0038
     14 C         140.0924  141.5427  165.9196 C.2     1  UNL1        0.3198
     15 O         141.2497  141.9454  165.0544 O.2     1  UNL1       -0.2498
     16 O         138.6880  141.7184  165.4231 O.3     1  UNL1       -0.4483
     17 C         137.7495  140.5629  163.2938 C.3     1  UNL1        0.0513
     18 C         138.4106  141.7391  163.9491 C.3     1  UNL1        0.2086
@<TRIPOS>BOND
     1    17    18    1
     2    18    16    1
     3    16    14    1
     4    14    15    2
     5    14     1    1
     6     1     8    1
     7     8     9   ar
     8     9    10   ar
     9    10    11   ar
    10    11    12   ar
    11    12    13   ar
    12     1     2    1
    13     2     3    1
    14     3     4    1
    15     4     5    1
    16     4     6    1
    17     6     7    1
    18     7     1    1
    19    13     8   ar
@<TRIPOS>MOLECULE
*****
 18 19 0 0 0
SMALL
GASTEIGER

@<TRIPOS>ATOM
      1 C         141.2812  142.4701  166.4165 C.3     1  UNL1        0.1110
      2 C         140.3294  142.8586  167.5087 C.3     1  UNL1        0.0320
      3 C         140.8153  142.9667  168.9237 C.3     1  UNL1        0.0730
      4 N         142.2531  142.6862  169.2464 N.3     1  UNL1       -0.2715
      5 C         142.7391  142.7943  170.6614 C.3     1  UNL1        0.0896
      6 C         143.2049  142.2976  168.1542 C.3     1  UNL1        0.0730
      7 C         142.7190  142.1895  166.7392 C.3     1  UNL1        0.0320
      8 C         140.0221  142.6356  165.6181 C.ar    1  UNL1       -0.0127
      9 C         139.3087  141.4291  165.0840 C.ar    1  UNL1       -0.0038
     10 C         138.0496  141.5946  164.2857 C.ar    1  UNL1       -0.0003
     11 C         137.5041  142.9667  164.0214 C.ar    1  UNL1       -0.0000
     12 C         138.2176  144.1732  164.5555 C.ar    1  UNL1       -0.0003
     13 C         139.4766  144.0076  165.3538 C.ar    1  UNL1       -0.0038
     14 C         141.7958  142.1389  165.0469 C.2     1  UNL1        0.3198
     15 O         142.3040  140.7593  164.7500 O.2     1  UNL1       -0.2498
     16 O         141.8021  143.1875  163.9744 O.3     1  UNL1       -0.4483
     17 C         143.6042  145.0590  163.9733 C.3     1  UNL1        0.0513
     18 C         143.1037  143.7373  163.4707 C.3     1  UNL1        0.2086
@<TRIPOS>BOND
     1    17    18    1
     2    18    16    1
     3    16    14    1
     4    14    15    2
     5    14     1    1
     6     1     8    1
     7     8     9   ar
     8     9    10   ar
     9    10    11   ar
    10    11    12   ar
    11    12    13   ar
    12     1     2    1
    13     2     3    1
    14     3     4    1
    15     4     5    1
    16     4     6    1
    17     6     7    1
    18     7     1    1
    19    13     8   ar
@<TRIPOS>MOLECULE
*****
 18 19 0 0 0
SMALL
GASTEIGER

@<TRIPOS>ATOM
      1 C         141.1357  142.7849  165.1150 C.3     1  UNL1        0.1110
      2 C         139.7269  143.2990  165.1420 C.3     1  UNL1        0.0320
      3 C         139.2988  144.3648  164.1773 C.3     1  UNL1        0.0730
      4 N         140.2797  144.9165  163.1855 N.3     1  UNL1       -0.2715
      5 C         139.8516  145.9824  162.2208 C.3     1  UNL1        0.0896
      6 C         141.6885  144.4025  163.1585 C.3     1  UNL1        0.0730
      7 C         142.1166  143.3366  164.1233 C.3     1  UNL1        0.0320
      8 C         140.5767  141.9544  166.2322 C.ar    1  UNL1       -0.0127
      9 C         140.8574  142.3281  167.6575 C.ar    1  UNL1       -0.0038
     10 C         140.2984  141.4977  168.7745 C.ar    1  UNL1       -0.0003
     11 C         139.4588  140.2935  168.4663 C.ar    1  UNL1       -0.0000
     12 C         139.1782  139.9197  167.0410 C.ar    1  UNL1       -0.0003
     13 C         139.7372  140.7502  165.9239 C.ar    1  UNL1       -0.0038
     14 C         142.3505  141.9824  165.4761 C.2     1  UNL1        0.3198
     15 O         143.4350  142.5974  166.3101 O.2     1  UNL1       -0.2498
     16 O         142.4808  140.5649  165.0030 O.3     1  UNL1       -0.4483
     17 C         142.8917  139.0937  167.1046 C.3     1  UNL1        0.0513
     18 C         143.3373  139.5962  165.7634 C.3     1  UNL1        0.2086
@<TRIPOS>BOND
     1    17    18    1
     2    18    16    1
     3    16    14    1
     4    14    15    2
     5    14     1    1
     6     1     8    1
     7     8     9   ar
     8     9    10   ar
     9    10    11   ar
    10    11    12   ar
    11    12    13   ar
    12     1     2    1
    13     2     3    1
    14     3     4    1
    15     4     5    1
    16     4     6    1
    17     6     7    1
    18     7     1    1
    19    13     8   ar
@<TRIPOS>MOLECULE
*****
 18 19 0 0 0
SMALL
GASTEIGER

@<TRIPOS>ATOM
      1 C         143.0093  141.0413  165.9651 C.3     1  UNL1        0.1110
      2 C         142.7708  141.9243  167.1539 C.3     1  UNL1        0.0320
      3 C         142.6366  141.3217  168.5209 C.3     1  UNL1        0.0730
      4 N         142.7409  139.8359  168.6991 N.3     1  UNL1       -0.2715
      5 C         142.6067  139.2333  170.0662 C.3     1  UNL1        0.0896
      6 C         142.9795  138.9529  167.5104 C.3     1  UNL1        0.0730
      7 C         143.1137  139.5555  166.1433 C.3     1  UNL1        0.0320
      8 C         142.9849  142.3821  165.2929 C.ar    1  UNL1       -0.0127
      9 C         144.1915  143.2713  165.3491 C.ar    1  UNL1       -0.0038
     10 C         144.1670  144.6120  164.6769 C.ar    1  UNL1       -0.0003
     11 C         142.9359  145.0634  163.9485 C.ar    1  UNL1       -0.0000
     12 C         141.7292  144.1742  163.8924 C.ar    1  UNL1       -0.0003
     13 C         141.7537  142.8335  164.5646 C.ar    1  UNL1       -0.0038
     14 C         143.2394  140.6238  164.5428 C.2     1  UNL1        0.3198
     15 O         142.0945  140.1211  163.7142 O.2     1  UNL1       -0.2498
     16 O         144.6142  140.7091  163.9492 O.3     1  UNL1       -0.4483
     17 C         144.6056  142.1542  161.7901 C.3     1  UNL1        0.0513
     18 C         144.7837  140.8257  162.4633 C.3     1  UNL1        0.2086
@<TRIPOS>BOND
     1    17    18    1
     2    18    16    1
     3    16    14    1
     4    14    15    2
     5    14     1    1
     6     1     8    1
     7     8     9   ar
     8     9    10   ar
     9    10    11   ar
    10    11    12   ar
    11    12    13   ar
    12     1     2    1
    13     2     3    1
    14     3     4    1
    15     4     5    1
    16     4     6    1
    17     6     7    1
    18     7     1    1
    19    13     8   ar
@<TRIPOS>MOLECULE
*****
 18 19 0 0 0
SMALL
GASTEIGER

@<TRIPOS>ATOM
      1 C         140.2616  141.1119  167.1468 C.3     1  UNL1        0.1110
      2 C         140.3224  140.0215  168.1749 C.3     1  UNL1        0.0320
      3 C         140.5691  140.3613  169.6149 C.3     1  UNL1        0.0730
      4 N         140.7550  141.7917  170.0267 N.3     1  UNL1       -0.2715
      5 C         141.0018  142.1315  171.4667 C.3     1  UNL1        0.0896
      6 C         140.6942  142.8821  168.9986 C.3     1  UNL1        0.0730
      7 C         140.4475  142.5423  167.5586 C.3     1  UNL1        0.0320
      8 C         140.0261  139.9161  166.2723 C.ar    1  UNL1       -0.0127
      9 C         138.7101  139.1980  166.3221 C.ar    1  UNL1       -0.0038
     10 C         138.4747  138.0022  165.4477 C.ar    1  UNL1       -0.0003
     11 C         139.5554  137.5245  164.5236 C.ar    1  UNL1       -0.0000
     12 C         140.8714  138.2425  164.4738 C.ar    1  UNL1       -0.0003
     13 C         141.1067  139.4383  165.3482 C.ar    1  UNL1       -0.0038
     14 C         140.1190  141.7871  165.8149 C.2     1  UNL1        0.3198
     15 O         141.3256  142.3569  165.1299 O.2     1  UNL1       -0.2498
     16 O         138.7697  141.8925  165.1681 O.3     1  UNL1       -0.4483
     17 C         138.4758  144.4727  165.0906 C.3     1  UNL1        0.0513
     18 C         138.3930  143.1351  164.4170 C.3     1  UNL1        0.2086
@<TRIPOS>BOND
     1    17    18    1
     2    18    16    1
     3    16    14    1
     4    14    15    2
     5    14     1    1
     6     1     8    1
     7     8     9   ar
     8     9    10   ar
     9    10    11   ar
    10    11    12   ar
    11    12    13   ar
    12     1     2    1
    13     2     3    1
    14     3     4    1
    15     4     5    1
    16     4     6    1
    17     6     7    1
    18     7     1    1
    19    13     8   ar
