@<TRIPOS>MOLECULE
*****
 30 34 0 0 0
SMALL
GASTEIGER

@<TRIPOS>ATOM
      1 N         141.5471  141.8923  165.1660 N.3     1  UNL1       -0.3219
      2 C         141.1792  140.5397  164.6321 C.3     1  UNL1        0.0563
      3 C         141.1664  140.2955  163.1522 C.3     1  UNL1        0.0318
      4 C         140.7985  138.9428  162.6184 C.3     1  UNL1        0.0595
      5 C         140.4435  137.8343  163.5646 C.3     1  UNL1        0.0164
      6 C         140.4564  138.0785  165.0446 C.3     1  UNL1        0.0071
      7 C         140.8242  139.4312  165.5784 C.3     1  UNL1        0.0389
      8 H         141.7571  142.5189  164.3890 H       1  UNL1        0.1188
      9 H         142.3670  141.8092  165.7669 H       1  UNL1        0.1188
     10 N         140.7857  138.6986  161.1385 N.3     1  UNL1       -0.2650
     11 C         139.5693  138.6613  160.2616 C.3     1  UNL1        0.1205
     12 C         140.0189  138.3884  158.8568 C.ar    1  UNL1        0.0954
     13 N         139.5450  138.1968  157.4466 N.ar    1  UNL1       -0.1669
     14 N         140.7462  137.9469  156.5837 N.ar    1  UNL1       -0.2112
     15 C         140.8897  137.6903  155.1129 C.ar    1  UNL1        0.1037
     16 C         142.2494  137.4709  154.5189 C.ar    1  UNL1        0.0414
     17 C         143.4658  137.5081  155.3959 C.ar    1  UNL1        0.1022
     18 N         143.3224  137.7647  156.8668 N.ar    1  UNL1       -0.2252
     19 C         141.9626  137.9841  157.4607 C.ar    1  UNL1        0.1623
     20 C         141.5131  138.2570  158.8655 C.ar    1  UNL1        0.0463
     21 C         141.9870  138.4487  160.2757 C.3     1  UNL1        0.1038
     22 C         140.8371  139.6753  167.0582 C.ar    1  UNL1        0.0086
     23 C         139.5679  140.0416  167.7690 C.ar    1  UNL1        0.0300
     24 C         139.5806  140.2858  169.2489 C.ar    1  UNL1        0.1672
     25 F         138.3115  140.6521  169.9596 F       1  UNL1       -0.2018
     26 C         140.8626  140.1637  170.0181 C.ar    1  UNL1        0.1696
     27 F         140.8754  140.4078  171.4981 F       1  UNL1       -0.2017
     28 C         142.1317  139.7974  169.3074 C.ar    1  UNL1        0.0612
     29 C         142.1190  139.5532  167.8275 C.ar    1  UNL1        0.1385
     30 F         143.3881  139.1870  167.1168 F       1  UNL1       -0.2044
@<TRIPOS>BOND
     1     2     1    1
     2     2     3    1
     3     3     4    1
     4     4    10    1
     5    10    11    1
     6    11    12    1
     7    12    13   ar
     8    13    14   ar
     9    14    15   ar
    10    15    16   ar
    11    16    17   ar
    12    17    18   ar
    13    18    19   ar
    14    19    20   ar
    15    20    21    1
    16     4     5    1
    17     5     6    1
    18     6     7    1
    19     7    22    1
    20    22    23   ar
    21    23    24   ar
    22    24    25    1
    23    24    26   ar
    24    26    27    1
    25    26    28   ar
    26    28    29   ar
    27    29    30    1
    28     7     2    1
    29    29    22   ar
    30    21    10    1
    31    20    12   ar
    32    19    14   ar
    33     1     8    1
    34     1     9    1
@<TRIPOS>MOLECULE
*****
 30 34 0 0 0
SMALL
GASTEIGER

@<TRIPOS>ATOM
      1 N         141.9265  142.1850  165.4278 N.3     1  UNL1       -0.3219
      2 C         141.9324  140.8237  164.7983 C.3     1  UNL1        0.0563
      3 C         142.2357  140.6743  163.3369 C.3     1  UNL1        0.0318
      4 C         142.2416  139.3128  162.7074 C.3     1  UNL1        0.0595
      5 C         141.9441  138.1006  163.5392 C.3     1  UNL1        0.0164
      6 C         141.6407  138.2499  165.0007 C.3     1  UNL1        0.0071
      7 C         141.6348  139.6114  165.6302 C.3     1  UNL1        0.0389
      8 H         142.1476  142.8871  164.7217 H       1  UNL1        0.1188
      9 H         142.6242  142.2189  166.1711 H       1  UNL1        0.1188
     10 N         142.5450  139.1635  161.2460 N.3     1  UNL1       -0.2650
     11 C         143.4623  140.0367  160.4422 C.3     1  UNL1        0.1205
     12 C         143.4685  139.5276  159.0312 C.ar    1  UNL1        0.0954
     13 N         144.0393  139.7526  157.6625 N.ar    1  UNL1       -0.1669
     14 N         143.4786  138.7039  156.7482 N.ar    1  UNL1       -0.2112
     15 C         143.6849  138.4312  155.2877 C.ar    1  UNL1        0.1037
     16 C         142.9738  137.2853  154.6310 C.ar    1  UNL1        0.0414
     17 C         142.0565  136.4121  155.4348 C.ar    1  UNL1        0.1022
     18 N         141.8503  136.6848  156.8953 N.ar    1  UNL1       -0.2252
     19 C         142.5613  137.8307  157.5520 C.ar    1  UNL1        0.1623
     20 C         142.5551  138.3398  158.9630 C.ar    1  UNL1        0.0463
     21 C         141.9843  138.1147  160.3318 C.3     1  UNL1        0.1038
     22 C         141.3314  139.7606  167.0915 C.ar    1  UNL1        0.0086
     23 C         142.4252  139.5976  168.1050 C.ar    1  UNL1        0.0300
     24 C         142.1219  139.7468  169.5664 C.ar    1  UNL1        0.1672
     25 F         143.2156  139.5838  170.5799 F       1  UNL1       -0.2018
     26 C         140.7248  140.0591  170.0143 C.ar    1  UNL1        0.1696
     27 F         140.4214  140.2083  171.4758 F       1  UNL1       -0.2017
     28 C         139.6310  140.2221  169.0009 C.ar    1  UNL1        0.0612
     29 C         139.9343  140.0729  167.5394 C.ar    1  UNL1        0.1385
     30 F         138.8406  140.2359  166.5260 F       1  UNL1       -0.2044
@<TRIPOS>BOND
     1     2     1    1
     2     2     3    1
     3     3     4    1
     4     4    10    1
     5    10    11    1
     6    11    12    1
     7    12    13   ar
     8    13    14   ar
     9    14    15   ar
    10    15    16   ar
    11    16    17   ar
    12    17    18   ar
    13    18    19   ar
    14    19    20   ar
    15    20    21    1
    16     4     5    1
    17     5     6    1
    18     6     7    1
    19     7    22    1
    20    22    23   ar
    21    23    24   ar
    22    24    25    1
    23    24    26   ar
    24    26    27    1
    25    26    28   ar
    26    28    29   ar
    27    29    30    1
    28     7     2    1
    29    29    22   ar
    30    21    10    1
    31    20    12   ar
    32    19    14   ar
    33     1     8    1
    34     1     9    1
@<TRIPOS>MOLECULE
*****
 30 34 0 0 0
SMALL
GASTEIGER

@<TRIPOS>ATOM
      1 N         140.2838  142.0871  165.1193 N.3     1  UNL1       -0.3219
      2 C         140.6329  140.7128  164.6302 C.3     1  UNL1        0.0563
      3 C         140.5932  140.4064  163.1624 C.3     1  UNL1        0.0318
      4 C         140.9423  139.0320  162.6734 C.3     1  UNL1        0.0595
      5 C         141.3313  137.9640  163.6522 C.3     1  UNL1        0.0164
      6 C         141.3711  138.2704  165.1201 C.3     1  UNL1        0.0071
      7 C         141.0219  139.6448  165.6091 C.3     1  UNL1        0.0389
      8 H         140.0459  142.6806  164.3245 H       1  UNL1        0.1188
      9 H         141.0822  142.4851  165.6138 H       1  UNL1        0.1188
     10 N         140.9026  138.7256  161.2056 N.3     1  UNL1       -0.2650
     11 C         139.6757  138.7007  160.3430 C.3     1  UNL1        0.1205
     12 C         140.0976  138.3500  158.9469 C.ar    1  UNL1        0.0954
     13 N         139.6001  138.1179  157.5510 N.ar    1  UNL1       -0.1669
     14 N         140.7803  137.7825  156.6880 N.ar    1  UNL1       -0.2112
     15 C         140.8963  137.4577  155.2282 C.ar    1  UNL1        0.1037
     16 C         142.2391  137.1578  154.6310 C.ar    1  UNL1        0.0414
     17 C         143.4661  137.1826  155.4936 C.ar    1  UNL1        0.1022
     18 N         143.3501  137.5074  156.9534 N.ar    1  UNL1       -0.2252
     19 C         142.0072  137.8074  157.5506 C.ar    1  UNL1        0.1623
     20 C         141.5853  138.1581  158.9467 C.ar    1  UNL1        0.0463
     21 C         142.0828  138.3902  160.3426 C.3     1  UNL1        0.1038
     22 C         141.0617  139.9512  167.0769 C.ar    1  UNL1        0.0086
     23 C         142.3591  140.3261  167.7299 C.ar    1  UNL1        0.0300
     24 C         142.3989  140.6324  169.1977 C.ar    1  UNL1        0.1672
     25 F         143.6963  141.0073  169.8507 F       1  UNL1       -0.2018
     26 C         141.1414  140.5639  170.0126 C.ar    1  UNL1        0.1696
     27 F         141.1813  140.8702  171.4805 F       1  UNL1       -0.2017
     28 C         139.8441  140.1890  169.3596 C.ar    1  UNL1        0.0612
     29 C         139.8042  139.8826  167.8918 C.ar    1  UNL1        0.1385
     30 F         138.5069  139.5077  167.2388 F       1  UNL1       -0.2044
@<TRIPOS>BOND
     1     2     1    1
     2     2     3    1
     3     3     4    1
     4     4    10    1
     5    10    11    1
     6    11    12    1
     7    12    13   ar
     8    13    14   ar
     9    14    15   ar
    10    15    16   ar
    11    16    17   ar
    12    17    18   ar
    13    18    19   ar
    14    19    20   ar
    15    20    21    1
    16     4     5    1
    17     5     6    1
    18     6     7    1
    19     7    22    1
    20    22    23   ar
    21    23    24   ar
    22    24    25    1
    23    24    26   ar
    24    26    27    1
    25    26    28   ar
    26    28    29   ar
    27    29    30    1
    28     7     2    1
    29    29    22   ar
    30    21    10    1
    31    20    12   ar
    32    19    14   ar
    33     1     8    1
    34     1     9    1
@<TRIPOS>MOLECULE
*****
 30 34 0 0 0
SMALL
GASTEIGER

@<TRIPOS>ATOM
      1 N         140.0259  140.8390  164.9383 N.3     1  UNL1       -0.3219
      2 C         141.1735  140.1854  164.2272 C.3     1  UNL1        0.0563
      3 C         141.0277  139.7674  162.7940 C.3     1  UNL1        0.0318
      4 C         142.1754  139.1138  162.0829 C.3     1  UNL1        0.0595
      5 C         143.4689  138.8783  162.8050 C.3     1  UNL1        0.0164
      6 C         143.6147  139.2963  164.2383 C.3     1  UNL1        0.0071
      7 C         142.4670  139.9499  164.9494 C.3     1  UNL1        0.0389
      8 H         139.2330  140.9196  164.3018 H       1  UNL1        0.1188
      9 H         140.3055  141.7682  165.2526 H       1  UNL1        0.1188
     10 N         142.0297  138.6958  160.6497 N.3     1  UNL1       -0.2650
     11 C         140.9347  139.1176  159.7153 C.3     1  UNL1        0.1205
     12 C         141.1817  138.4650  158.3874 C.ar    1  UNL1        0.0954
     13 N         140.6576  138.3224  156.9892 N.ar    1  UNL1       -0.1669
     14 N         141.5812  137.4092  156.2388 N.ar    1  UNL1       -0.2112
     15 C         141.5666  136.9072  154.8254 C.ar    1  UNL1        0.1037
     16 C         142.6470  135.9834  154.3465 C.ar    1  UNL1        0.0414
     17 C         143.7419  135.5617  155.2810 C.ar    1  UNL1        0.1022
     18 N         143.7565  136.0636  156.6944 N.ar    1  UNL1       -0.2252
     19 C         142.6761  136.9874  157.1733 C.ar    1  UNL1        0.1623
     20 C         142.4292  137.6399  158.5012 C.ar    1  UNL1        0.0463
     21 C         142.9533  137.7826  159.8995 C.3     1  UNL1        0.1038
     22 C         142.6128  140.3678  166.3825 C.ar    1  UNL1        0.0086
     23 C         142.4593  139.3552  167.4784 C.ar    1  UNL1        0.0300
     24 C         142.6051  139.7731  168.9116 C.ar    1  UNL1        0.1672
     25 F         142.4515  138.7604  170.0075 F       1  UNL1       -0.2018
     26 C         142.9045  141.2037  169.2489 C.ar    1  UNL1        0.1696
     27 F         143.0503  141.6216  170.6821 F       1  UNL1       -0.2017
     28 C         143.0581  142.2163  168.1530 C.ar    1  UNL1        0.0612
     29 C         142.9123  141.7984  166.7198 C.ar    1  UNL1        0.1385
     30 F         143.0659  142.8111  165.6239 F       1  UNL1       -0.2044
@<TRIPOS>BOND
     1     2     1    1
     2     2     3    1
     3     3     4    1
     4     4    10    1
     5    10    11    1
     6    11    12    1
     7    12    13   ar
     8    13    14   ar
     9    14    15   ar
    10    15    16   ar
    11    16    17   ar
    12    17    18   ar
    13    18    19   ar
    14    19    20   ar
    15    20    21    1
    16     4     5    1
    17     5     6    1
    18     6     7    1
    19     7    22    1
    20    22    23   ar
    21    23    24   ar
    22    24    25    1
    23    24    26   ar
    24    26    27    1
    25    26    28   ar
    26    28    29   ar
    27    29    30    1
    28     7     2    1
    29    29    22   ar
    30    21    10    1
    31    20    12   ar
    32    19    14   ar
    33     1     8    1
    34     1     9    1
@<TRIPOS>MOLECULE
*****
 30 34 0 0 0
SMALL
GASTEIGER

@<TRIPOS>ATOM
      1 N         142.7256  140.7651  165.6281 N.3     1  UNL1       -0.3219
      2 C         141.7327  141.7852  165.1556 C.3     1  UNL1        0.0563
      3 C         141.7597  142.2546  163.7312 C.3     1  UNL1        0.0318
      4 C         140.7667  143.2748  163.2587 C.3     1  UNL1        0.0595
      5 C         139.7467  143.8255  164.2107 C.3     1  UNL1        0.0164
      6 C         139.7196  143.3561  165.6352 C.3     1  UNL1        0.0071
      7 C         140.7127  142.3359  166.1076 C.3     1  UNL1        0.0389
      8 H         143.3383  140.5038  164.8556 H       1  UNL1        0.1188
      9 H         142.2306  139.9389  165.9640 H       1  UNL1        0.1188
     10 N         140.7937  143.7443  161.8344 N.3     1  UNL1       -0.2650
     11 C         141.7408  144.7538  161.2565 C.3     1  UNL1        0.1205
     12 C         141.4107  144.9200  159.8027 C.ar    1  UNL1        0.0954
     13 N         141.7920  145.6466  158.5471 N.ar    1  UNL1       -0.1669
     14 N         140.8767  145.1890  157.4505 N.ar    1  UNL1       -0.2112
     15 C         140.7832  145.5610  156.0004 C.ar    1  UNL1        0.1037
     16 C         139.7426  144.9236  155.1282 C.ar    1  UNL1        0.0414
     17 C         138.7955  143.9141  155.7060 C.ar    1  UNL1        0.1022
     18 N         138.8890  143.5420  157.1561 N.ar    1  UNL1       -0.2252
     19 C         139.9296  144.1795  158.0283 C.ar    1  UNL1        0.1623
     20 C         140.2596  144.0132  159.4821 C.ar    1  UNL1        0.0463
     21 C         139.8783  143.2865  160.7377 C.3     1  UNL1        0.1038
     22 C         140.6856  141.8666  167.5320 C.ar    1  UNL1        0.0086
     23 C         141.5408  142.5442  168.5613 C.ar    1  UNL1        0.0300
     24 C         141.5138  142.0749  169.9857 C.ar    1  UNL1        0.1672
     25 F         142.3690  142.7525  171.0150 F       1  UNL1       -0.2018
     26 C         140.6316  140.9279  170.3808 C.ar    1  UNL1        0.1696
     27 F         140.6045  140.4585  171.8053 F       1  UNL1       -0.2017
     28 C         139.7764  140.2503  169.3515 C.ar    1  UNL1        0.0612
     29 C         139.8034  140.7196  167.9271 C.ar    1  UNL1        0.1385
     30 F         138.9482  140.0419  166.8977 F       1  UNL1       -0.2044
@<TRIPOS>BOND
     1     2     1    1
     2     2     3    1
     3     3     4    1
     4     4    10    1
     5    10    11    1
     6    11    12    1
     7    12    13   ar
     8    13    14   ar
     9    14    15   ar
    10    15    16   ar
    11    16    17   ar
    12    17    18   ar
    13    18    19   ar
    14    19    20   ar
    15    20    21    1
    16     4     5    1
    17     5     6    1
    18     6     7    1
    19     7    22    1
    20    22    23   ar
    21    23    24   ar
    22    24    25    1
    23    24    26   ar
    24    26    27    1
    25    26    28   ar
    26    28    29   ar
    27    29    30    1
    28     7     2    1
    29    29    22   ar
    30    21    10    1
    31    20    12   ar
    32    19    14   ar
    33     1     8    1
    34     1     9    1
@<TRIPOS>MOLECULE
*****
 30 34 0 0 0
SMALL
GASTEIGER

@<TRIPOS>ATOM
      1 N         143.7846  138.3526  166.2461 N.3     1  UNL1       -0.3219
      2 C         142.8907  139.0559  165.2683 C.3     1  UNL1        0.0563
      3 C         142.8621  138.6229  163.8325 C.3     1  UNL1        0.0318
      4 C         141.9680  139.3263  162.8547 C.3     1  UNL1        0.0595
      5 C         141.1026  140.4626  163.3128 C.3     1  UNL1        0.0164
      6 C         141.1312  140.8955  164.7487 C.3     1  UNL1        0.0071
      7 C         142.0252  140.1922  165.7265 C.3     1  UNL1        0.0389
      8 H         144.2971  137.6123  165.7667 H       1  UNL1        0.1188
      9 H         143.2198  137.9469  166.9923 H       1  UNL1        0.1188
     10 N         141.9394  138.8934  161.4188 N.3     1  UNL1       -0.2650
     11 C         143.0942  138.3303  160.6445 C.3     1  UNL1        0.1205
     12 C         142.6194  138.0365  159.2523 C.ar    1  UNL1        0.0954
     13 N         143.0396  137.5069  157.9133 N.ar    1  UNL1       -0.1669
     14 N         141.8513  137.5610  156.9996 N.ar    1  UNL1       -0.2112
     15 C         141.6714  137.1703  155.5626 C.ar    1  UNL1        0.1037
     16 C         140.3369  137.3428  154.8999 C.ar    1  UNL1        0.0414
     17 C         139.1821  137.9058  155.6742 C.ar    1  UNL1        0.1022
     18 N         139.3620  138.2965  157.1112 N.ar    1  UNL1       -0.2252
     19 C         140.6965  138.1241  157.7739 C.ar    1  UNL1        0.1623
     20 C         141.1713  138.4179  159.1661 C.ar    1  UNL1        0.0463
     21 C         140.7510  138.9475  160.5052 C.3     1  UNL1        0.1038
     22 C         142.0538  140.6252  167.1623 C.ar    1  UNL1        0.0086
     23 C         141.2372  139.8902  168.1836 C.ar    1  UNL1        0.0300
     24 C         141.2657  140.3231  169.6195 C.ar    1  UNL1        0.1672
     25 F         140.4491  139.5881  170.6408 F       1  UNL1       -0.2018
     26 C         142.1107  141.4910  170.0341 C.ar    1  UNL1        0.1696
     27 F         142.1393  141.9240  171.4700 F       1  UNL1       -0.2017
     28 C         142.9273  142.2260  169.0128 C.ar    1  UNL1        0.0612
     29 C         142.8988  141.7930  167.5769 C.ar    1  UNL1        0.1385
     30 F         143.7154  142.5280  166.5556 F       1  UNL1       -0.2044
@<TRIPOS>BOND
     1     2     1    1
     2     2     3    1
     3     3     4    1
     4     4    10    1
     5    10    11    1
     6    11    12    1
     7    12    13   ar
     8    13    14   ar
     9    14    15   ar
    10    15    16   ar
    11    16    17   ar
    12    17    18   ar
    13    18    19   ar
    14    19    20   ar
    15    20    21    1
    16     4     5    1
    17     5     6    1
    18     6     7    1
    19     7    22    1
    20    22    23   ar
    21    23    24   ar
    22    24    25    1
    23    24    26   ar
    24    26    27    1
    25    26    28   ar
    26    28    29   ar
    27    29    30    1
    28     7     2    1
    29    29    22   ar
    30    21    10    1
    31    20    12   ar
    32    19    14   ar
    33     1     8    1
    34     1     9    1
@<TRIPOS>MOLECULE
*****
 30 34 0 0 0
SMALL
GASTEIGER

@<TRIPOS>ATOM
      1 N         141.8567  142.4308  165.5761 N.3     1  UNL1       -0.3219
      2 C         142.0028  141.1177  164.8662 C.3     1  UNL1        0.0563
      3 C         142.3833  141.0875  163.4155 C.3     1  UNL1        0.0318
      4 C         142.5293  139.7743  162.7056 C.3     1  UNL1        0.0595
      5 C         142.2949  138.4911  163.4463 C.3     1  UNL1        0.0164
      6 C         141.9144  138.5212  164.8970 C.3     1  UNL1        0.0071
      7 C         141.7683  139.8345  165.6069 C.3     1  UNL1        0.0389
      8 H         142.0512  143.1923  164.9260 H       1  UNL1        0.1188
      9 H         142.5149  142.4717  166.3543 H       1  UNL1        0.1188
     10 N         142.9098  139.7441  161.2550 N.3     1  UNL1       -0.2650
     11 C         142.5480  138.6716  160.2706 C.3     1  UNL1        0.1205
     12 C         143.1335  139.0459  158.9413 C.ar    1  UNL1        0.0954
     13 N         143.2718  138.6144  157.5114 N.ar    1  UNL1       -0.1669
     14 N         144.0809  139.6515  156.7904 N.ar    1  UNL1       -0.2112
     15 C         144.5350  139.7578  155.3647 C.ar    1  UNL1        0.1037
     16 C         145.3508  140.9366  154.9234 C.ar    1  UNL1        0.0414
     17 C         145.7126  142.0090  155.9078 C.ar    1  UNL1        0.1022
     18 N         145.2586  141.9027  157.3334 N.ar    1  UNL1       -0.2252
     19 C         144.4427  140.7239  157.7747 C.ar    1  UNL1        0.1623
     20 C         143.8572  140.3497  159.1040 C.ar    1  UNL1        0.0463
     21 C         143.7190  140.7812  160.5340 C.3     1  UNL1        0.1038
     22 C         141.3879  139.8646  167.0575 C.ar    1  UNL1        0.0086
     23 C         142.4208  139.5886  168.1096 C.ar    1  UNL1        0.0300
     24 C         142.0404  139.6187  169.5602 C.ar    1  UNL1        0.1672
     25 F         143.0733  139.3427  170.6124 F       1  UNL1       -0.2018
     26 C         140.6270  139.9246  169.9588 C.ar    1  UNL1        0.1696
     27 F         140.2466  139.9547  171.4095 F       1  UNL1       -0.2017
     28 C         139.5941  140.2006  168.9066 C.ar    1  UNL1        0.0612
     29 C         139.9745  140.1705  167.4560 C.ar    1  UNL1        0.1385
     30 F         138.9416  140.4465  166.4038 F       1  UNL1       -0.2044
@<TRIPOS>BOND
     1     2     1    1
     2     2     3    1
     3     3     4    1
     4     4    10    1
     5    10    11    1
     6    11    12    1
     7    12    13   ar
     8    13    14   ar
     9    14    15   ar
    10    15    16   ar
    11    16    17   ar
    12    17    18   ar
    13    18    19   ar
    14    19    20   ar
    15    20    21    1
    16     4     5    1
    17     5     6    1
    18     6     7    1
    19     7    22    1
    20    22    23   ar
    21    23    24   ar
    22    24    25    1
    23    24    26   ar
    24    26    27    1
    25    26    28   ar
    26    28    29   ar
    27    29    30    1
    28     7     2    1
    29    29    22   ar
    30    21    10    1
    31    20    12   ar
    32    19    14   ar
    33     1     8    1
    34     1     9    1
@<TRIPOS>MOLECULE
*****
 30 34 0 0 0
SMALL
GASTEIGER

@<TRIPOS>ATOM
      1 N         141.6898  139.4686  165.2227 N.3     1  UNL1       -0.3219
      2 C         141.2235  140.8451  164.8518 C.3     1  UNL1        0.0563
      3 C         140.9048  141.1692  163.4223 C.3     1  UNL1        0.0318
      4 C         140.4384  142.5458  163.0514 C.3     1  UNL1        0.0595
      5 C         140.2908  143.5983  164.1099 C.3     1  UNL1        0.0164
      6 C         140.6095  143.2742  165.5395 C.3     1  UNL1        0.0071
      7 C         141.0758  141.8976  165.9104 C.3     1  UNL1        0.0389
      8 H         141.7322  138.8870  164.3859 H       1  UNL1        0.1188
      9 H         141.0375  139.0570  165.8902 H       1  UNL1        0.1188
     10 N         140.1197  142.8700  161.6219 N.3     1  UNL1       -0.2650
     11 C         139.1751  142.1134  160.7358 C.3     1  UNL1        0.1205
     12 C         139.1613  142.7835  159.3938 C.ar    1  UNL1        0.0954
     13 N         138.5690  142.7301  158.0168 N.ar    1  UNL1       -0.1669
     14 N         139.1390  143.8677  157.2225 N.ar    1  UNL1       -0.2112
     15 C         138.9199  144.3124  155.8068 C.ar    1  UNL1        0.1037
     16 C         139.6454  145.5137  155.2773 C.ar    1  UNL1        0.0414
     17 C         140.5901  146.2703  156.1635 C.ar    1  UNL1        0.1022
     18 N         140.8092  145.8256  157.5791 N.ar    1  UNL1       -0.2252
     19 C         140.0836  144.6243  158.1087 C.ar    1  UNL1        0.1623
     20 C         140.0974  143.9542  159.4506 C.ar    1  UNL1        0.0463
     21 C         140.6898  144.0077  160.8277 C.3     1  UNL1        0.1038
     22 C         141.3945  141.5735  167.3398 C.ar    1  UNL1        0.0086
     23 C         142.6865  142.0380  167.9440 C.ar    1  UNL1        0.0300
     24 C         143.0052  141.7139  169.3735 C.ar    1  UNL1        0.1672
     25 F         144.2972  142.1784  169.9777 F       1  UNL1       -0.2018
     26 C         142.0320  140.9255  170.1988 C.ar    1  UNL1        0.1696
     27 F         142.3507  140.6014  171.6283 F       1  UNL1       -0.2017
     28 C         140.7400  140.4610  169.5945 C.ar    1  UNL1        0.0612
     29 C         140.4212  140.7850  168.1651 C.ar    1  UNL1        0.1385
     30 F         139.1293  140.3206  167.5608 F       1  UNL1       -0.2044
@<TRIPOS>BOND
     1     2     1    1
     2     2     3    1
     3     3     4    1
     4     4    10    1
     5    10    11    1
     6    11    12    1
     7    12    13   ar
     8    13    14   ar
     9    14    15   ar
    10    15    16   ar
    11    16    17   ar
    12    17    18   ar
    13    18    19   ar
    14    19    20   ar
    15    20    21    1
    16     4     5    1
    17     5     6    1
    18     6     7    1
    19     7    22    1
    20    22    23   ar
    21    23    24   ar
    22    24    25    1
    23    24    26   ar
    24    26    27    1
    25    26    28   ar
    26    28    29   ar
    27    29    30    1
    28     7     2    1
    29    29    22   ar
    30    21    10    1
    31    20    12   ar
    32    19    14   ar
    33     1     8    1
    34     1     9    1
@<TRIPOS>MOLECULE
*****
 30 34 0 0 0
SMALL
GASTEIGER

@<TRIPOS>ATOM
      1 N         137.5989  141.8378  164.7042 N.3     1  UNL1       -0.3219
      2 C         138.6307  140.9503  164.0737 C.3     1  UNL1        0.0563
      3 C         138.5665  140.6514  162.6052 C.3     1  UNL1        0.0318
      4 C         139.5983  139.7638  161.9746 C.3     1  UNL1        0.0595
      5 C         140.6943  139.1751  162.8126 C.3     1  UNL1        0.0164
      6 C         140.7585  139.4740  164.2812 C.3     1  UNL1        0.0071
      7 C         139.7267  140.3616  164.9117 C.3     1  UNL1        0.0389
      8 H         136.9356  142.1463  163.9934 H       1  UNL1        0.1188
      9 H         138.0564  142.6503  165.1178 H       1  UNL1        0.1188
     10 N         139.5342  139.4649  160.5061 N.3     1  UNL1       -0.2650
     11 C         138.6467  140.1445  159.5059 C.3     1  UNL1        0.1205
     12 C         138.9103  139.5335  158.1617 C.ar    1  UNL1        0.0954
     13 N         138.5248  139.5758  156.7127 N.ar    1  UNL1       -0.1669
     14 N         139.3369  138.5447  155.9865 N.ar    1  UNL1       -0.2112
     15 C         139.3829  138.1369  154.5438 C.ar    1  UNL1        0.1037
     16 C         140.3164  137.0495  154.1012 C.ar    1  UNL1        0.0414
     17 C         141.2039  136.3698  155.1014 C.ar    1  UNL1        0.1022
     18 N         141.1579  136.7776  156.5442 N.ar    1  UNL1       -0.2252
     19 C         140.2244  137.8651  156.9867 C.ar    1  UNL1        0.1623
     20 C         139.9608  138.4762  158.3310 C.ar    1  UNL1        0.0463
     21 C         140.3464  138.4337  159.7800 C.3     1  UNL1        0.1038
     22 C         139.7909  140.6605  166.3802 C.ar    1  UNL1        0.0086
     23 C         140.5177  141.8793  166.8664 C.ar    1  UNL1        0.0300
     24 C         140.5820  142.1782  168.3349 C.ar    1  UNL1        0.1672
     25 F         141.3087  143.3970  168.8211 F       1  UNL1       -0.2018
     26 C         139.9194  141.2584  169.3172 C.ar    1  UNL1        0.1696
     27 F         139.9836  141.5573  170.7858 F       1  UNL1       -0.2017
     28 C         139.1926  140.0396  168.8310 C.ar    1  UNL1        0.0612
     29 C         139.1284  139.7407  167.3625 C.ar    1  UNL1        0.1385
     30 F         138.4016  138.5219  166.8763 F       1  UNL1       -0.2044
@<TRIPOS>BOND
     1     2     1    1
     2     2     3    1
     3     3     4    1
     4     4    10    1
     5    10    11    1
     6    11    12    1
     7    12    13   ar
     8    13    14   ar
     9    14    15   ar
    10    15    16   ar
    11    16    17   ar
    12    17    18   ar
    13    18    19   ar
    14    19    20   ar
    15    20    21    1
    16     4     5    1
    17     5     6    1
    18     6     7    1
    19     7    22    1
    20    22    23   ar
    21    23    24   ar
    22    24    25    1
    23    24    26   ar
    24    26    27    1
    25    26    28   ar
    26    28    29   ar
    27    29    30    1
    28     7     2    1
    29    29    22   ar
    30    21    10    1
    31    20    12   ar
    32    19    14   ar
    33     1     8    1
    34     1     9    1
