@<TRIPOS>MOLECULE
*****
 26 28 0 0 0
SMALL
GASTEIGER

@<TRIPOS>ATOM
      1 N         138.4136  139.7270  164.2103 N.ar    1  UNL1       -0.3048
      2 C         138.2761  139.0519  162.8779 C.ar    1  UNL1        0.1788
      3 N         138.2496  140.1151  161.8201 N.ar    1  UNL1       -0.2226
      4 C         138.3707  141.4473  162.4988 C.ar    1  UNL1        0.1129
      5 C         138.4019  142.8478  161.9624 C.ar    1  UNL1        0.0792
      6 C         138.5343  144.0085  162.9034 C.ar    1  UNL1       -0.0096
      7 C         138.5655  145.4090  162.3671 C.3     1  UNL1        0.0321
      8 C         138.6357  143.7687  164.3806 C.ar    1  UNL1       -0.0230
      9 C         138.7681  144.9293  165.3215 C.3     1  UNL1        0.0308
     10 C         138.6045  142.3681  164.9169 C.ar    1  UNL1        0.0143
     11 C         138.4721  141.2075  163.9760 C.ar    1  UNL1        0.0801
     12 N         138.3005  143.0877  160.4852 N.pl3   1  UNL1       -0.2175
     13 H         137.5677  143.6376  160.1249 H       1  UNL1        0.1734
     14 S         139.3157  142.4895  159.5569 S.O2    1  UNL1        0.0558
     15 C         140.3309  141.8914  158.6287 C.3     1  UNL1        0.1996
     16 O         138.2257  141.7453  158.8442 O.2     1  UNL1       -0.1544
     17 O         140.4058  143.2337  160.2696 O.2     1  UNL1       -0.1544
     18 C         138.4807  139.0420  165.5430 C.3     1  UNL1        0.1343
     19 C         141.8833  139.9186  168.3545 C.ar    1  UNL1        0.1387
     20 C         140.4661  140.0709  168.8218 C.ar    1  UNL1        0.0366
     21 C         139.3319  139.7787  167.8845 C.ar    1  UNL1        0.0007
     22 C         139.6149  139.3342  166.4801 C.ar    1  UNL1        0.0006
     23 C         141.0322  139.1819  166.0129 C.ar    1  UNL1        0.0007
     24 C         142.1663  139.4741  166.9501 C.ar    1  UNL1        0.0366
     25 C         143.3436  141.6290  169.6553 C.3     1  UNL1        0.2525
     26 O         143.0175  140.2108  169.2916 O.3     1  UNL1       -0.4714
@<TRIPOS>BOND
     1    25    26    1
     2    26    19    1
     3    19    20   ar
     4    20    21   ar
     5    21    22   ar
     6    22    18    1
     7    18     1    1
     8     1     2   ar
     9     2     3   ar
    10     3     4   ar
    11     4     5   ar
    12     5    12    1
    13    12    14    1
    14    14    15    1
    15    14    16    2
    16    14    17    2
    17     5     6   ar
    18     6     7    1
    19     6     8   ar
    20     8     9    1
    21     8    10   ar
    22    10    11   ar
    23    22    23   ar
    24    23    24   ar
    25    24    19   ar
    26    11     1   ar
    27    11     4   ar
    28    12    13    1
@<TRIPOS>MOLECULE
*****
 26 28 0 0 0
SMALL
GASTEIGER

@<TRIPOS>ATOM
      1 N         139.3864  141.5102  164.5827 N.ar    1  UNL1       -0.3048
      2 C         138.3098  142.1285  163.7411 C.ar    1  UNL1        0.1788
      3 N         138.8674  143.3727  163.1158 N.ar    1  UNL1       -0.2226
      4 C         140.2887  143.5234  163.5711 C.ar    1  UNL1        0.1129
      5 C         141.3322  144.5600  163.2772 C.ar    1  UNL1        0.0792
      6 C         142.6966  144.4456  163.8900 C.ar    1  UNL1       -0.0096
      7 C         143.7401  145.4822  163.5961 C.3     1  UNL1        0.0321
      8 C         143.0174  143.2944  164.7966 C.ar    1  UNL1       -0.0230
      9 C         144.3817  143.1799  165.4093 C.3     1  UNL1        0.0308
     10 C         141.9738  142.2577  165.0904 C.ar    1  UNL1        0.0143
     11 C         140.6095  142.3722  164.4777 C.ar    1  UNL1        0.0801
     12 N         141.0114  145.7112  162.3706 N.pl3   1  UNL1       -0.2175
     13 H         141.0466  146.6331  162.7143 H       1  UNL1        0.1734
     14 S         140.6369  145.4577  160.9404 S.O2    1  UNL1        0.0558
     15 C         140.2624  145.2043  159.5102 C.3     1  UNL1        0.1996
     16 O         141.9632  144.7960  160.7103 O.2     1  UNL1       -0.1544
     17 O         139.3106  146.1195  161.1704 O.2     1  UNL1       -0.1544
     18 C         139.2620  140.2508  165.3880 C.3     1  UNL1        0.1343
     19 C         142.0866  139.4764  168.8045 C.ar    1  UNL1        0.1387
     20 C         140.7680  140.1450  169.0583 C.ar    1  UNL1        0.0366
     21 C         139.8265  140.4031  167.9194 C.ar    1  UNL1        0.0007
     22 C         140.2035  139.9927  166.5268 C.ar    1  UNL1        0.0006
     23 C         141.5221  139.3240  166.2731 C.ar    1  UNL1        0.0007
     24 C         142.4636  139.0659  167.4119 C.ar    1  UNL1        0.0366
     25 C         143.2685  137.8146  170.4142 C.3     1  UNL1        0.2525
     26 O         143.0281  139.2183  169.9433 O.3     1  UNL1       -0.4714
@<TRIPOS>BOND
     1    25    26    1
     2    26    19    1
     3    19    20   ar
     4    20    21   ar
     5    21    22   ar
     6    22    18    1
     7    18     1    1
     8     1     2   ar
     9     2     3   ar
    10     3     4   ar
    11     4     5   ar
    12     5    12    1
    13    12    14    1
    14    14    15    1
    15    14    16    2
    16    14    17    2
    17     5     6   ar
    18     6     7    1
    19     6     8   ar
    20     8     9    1
    21     8    10   ar
    22    10    11   ar
    23    22    23   ar
    24    23    24   ar
    25    24    19   ar
    26    11     1   ar
    27    11     4   ar
    28    12    13    1
@<TRIPOS>MOLECULE
*****
 26 28 0 0 0
SMALL
GASTEIGER

@<TRIPOS>ATOM
      1 N         138.4831  139.0278  165.7562 N.ar    1  UNL1       -0.3048
      2 C         138.7915  137.7346  165.0616 C.ar    1  UNL1        0.1788
      3 N         138.8799  138.0089  163.5895 N.ar    1  UNL1       -0.2226
      4 C         138.6261  139.4715  163.3744 C.ar    1  UNL1        0.1129
      5 C         138.5867  140.3113  162.1321 C.ar    1  UNL1        0.0792
      6 C         138.3019  141.7809  162.2290 C.ar    1  UNL1       -0.0096
      7 C         138.2625  142.6206  160.9867 C.3     1  UNL1        0.0321
      8 C         138.0567  142.4106  163.5681 C.ar    1  UNL1       -0.0230
      9 C         137.7719  143.8801  163.6650 C.3     1  UNL1        0.0308
     10 C         138.0961  141.5708  164.8104 C.ar    1  UNL1        0.0143
     11 C         138.3808  140.1013  164.7135 C.ar    1  UNL1        0.0801
     12 N         138.8319  139.6815  160.7930 N.pl3   1  UNL1       -0.2175
     13 H         138.1261  139.6934  160.1068 H       1  UNL1        0.1734
     14 S         140.1527  139.0337  160.4994 S.O2    1  UNL1        0.0558
     15 C         141.4734  138.3860  160.2059 C.3     1  UNL1        0.1996
     16 O         139.4738  137.7010  160.3860 O.2     1  UNL1       -0.1544
     17 O         140.8315  140.3665  160.6129 O.2     1  UNL1       -0.1544
     18 C         138.3076  139.2147  167.2341 C.3     1  UNL1        0.1343
     19 C         141.6097  141.0528  169.6772 C.ar    1  UNL1        0.1387
     20 C         141.8909  140.5543  168.2906 C.ar    1  UNL1        0.0366
     21 C         140.7902  139.9416  167.4763 C.ar    1  UNL1        0.0007
     22 C         139.4083  139.8274  168.0485 C.ar    1  UNL1        0.0006
     23 C         139.1271  140.3259  169.4350 C.ar    1  UNL1        0.0007
     24 C         140.2278  140.9386  170.2493 C.ar    1  UNL1        0.0366
     25 C         143.8295  142.3961  169.8106 C.3     1  UNL1        0.2525
     26 O         142.7103  141.6654  170.4915 O.3     1  UNL1       -0.4714
@<TRIPOS>BOND
     1    25    26    1
     2    26    19    1
     3    19    20   ar
     4    20    21   ar
     5    21    22   ar
     6    22    18    1
     7    18     1    1
     8     1     2   ar
     9     2     3   ar
    10     3     4   ar
    11     4     5   ar
    12     5    12    1
    13    12    14    1
    14    14    15    1
    15    14    16    2
    16    14    17    2
    17     5     6   ar
    18     6     7    1
    19     6     8   ar
    20     8     9    1
    21     8    10   ar
    22    10    11   ar
    23    22    23   ar
    24    23    24   ar
    25    24    19   ar
    26    11     1   ar
    27    11     4   ar
    28    12    13    1
@<TRIPOS>MOLECULE
*****
 26 28 0 0 0
SMALL
GASTEIGER

@<TRIPOS>ATOM
      1 N         143.0491  142.6934  164.0446 N.ar    1  UNL1       -0.3048
      2 C         143.4787  142.3203  162.6567 C.ar    1  UNL1        0.1788
      3 N         142.3552  142.6504  161.7193 N.ar    1  UNL1       -0.2226
      4 C         141.2312  143.2274  162.5278 C.ar    1  UNL1        0.1129
      5 C         139.8727  143.7321  162.1410 C.ar    1  UNL1        0.0792
      6 C         138.9429  144.2635  163.1914 C.ar    1  UNL1       -0.0096
      7 C         137.5844  144.7682  162.8046 C.3     1  UNL1        0.0321
      8 C         139.3718  144.2900  164.6285 C.ar    1  UNL1       -0.0230
      9 C         138.4421  144.8213  165.6789 C.3     1  UNL1        0.0308
     10 C         140.7304  143.7853  165.0153 C.ar    1  UNL1        0.0143
     11 C         141.6601  143.2540  163.9649 C.ar    1  UNL1        0.0801
     12 N         139.4439  143.7056  160.7038 N.pl3   1  UNL1       -0.2175
     13 H         138.6664  143.1663  160.4320 H       1  UNL1        0.1734
     14 S         140.1998  144.5007  159.6808 S.O2    1  UNL1        0.0558
     15 C         140.9556  145.2958  158.6578 C.3     1  UNL1        0.1996
     16 O         140.5803  143.2324  158.9761 O.2     1  UNL1       -0.1544
     17 O         139.8193  145.7690  160.3854 O.2     1  UNL1       -0.1544
     18 C         143.8651  142.5338  165.2930 C.3     1  UNL1        0.1343
     19 C         142.2136  140.2180  168.7801 C.ar    1  UNL1        0.1387
     20 C         142.7169  141.6170  168.9797 C.ar    1  UNL1        0.0366
     21 C         143.2674  142.3888  167.8172 C.ar    1  UNL1        0.0007
     22 C         143.3146  141.7619  166.4553 C.ar    1  UNL1        0.0006
     23 C         142.8114  140.3629  166.2559 C.ar    1  UNL1        0.0007
     24 C         142.2609  139.5911  167.4183 C.ar    1  UNL1        0.0366
     25 C         140.4366  139.9351  170.6542 C.3     1  UNL1        0.2525
     26 O         141.6631  139.4461  169.9425 O.3     1  UNL1       -0.4714
@<TRIPOS>BOND
     1    25    26    1
     2    26    19    1
     3    19    20   ar
     4    20    21   ar
     5    21    22   ar
     6    22    18    1
     7    18     1    1
     8     1     2   ar
     9     2     3   ar
    10     3     4   ar
    11     4     5   ar
    12     5    12    1
    13    12    14    1
    14    14    15    1
    15    14    16    2
    16    14    17    2
    17     5     6   ar
    18     6     7    1
    19     6     8   ar
    20     8     9    1
    21     8    10   ar
    22    10    11   ar
    23    22    23   ar
    24    23    24   ar
    25    24    19   ar
    26    11     1   ar
    27    11     4   ar
    28    12    13    1
@<TRIPOS>MOLECULE
*****
 26 28 0 0 0
SMALL
GASTEIGER

@<TRIPOS>ATOM
      1 N         142.3433  142.1606  165.9401 N.ar    1  UNL1       -0.3048
      2 C         142.7007  142.4779  167.3619 C.ar    1  UNL1        0.1788
      3 N         141.7445  141.7442  168.2549 N.ar    1  UNL1       -0.2226
      4 C         140.7962  140.9735  167.3850 C.ar    1  UNL1        0.1129
      5 C         139.6436  140.0706  167.7108 C.ar    1  UNL1        0.0792
      6 C         138.8610  139.4250  166.6058 C.ar    1  UNL1       -0.0096
      7 C         137.7083  138.5221  166.9316 C.3     1  UNL1        0.0321
      8 C         139.2310  139.6824  165.1752 C.ar    1  UNL1       -0.0230
      9 C         138.4485  139.0369  164.0703 C.3     1  UNL1        0.0308
     10 C         140.3837  140.5853  164.8494 C.ar    1  UNL1        0.0143
     11 C         141.1663  141.2308  165.9543 C.ar    1  UNL1        0.0801
     12 N         139.2735  139.8132  169.1414 N.pl3   1  UNL1       -0.2175
     13 H         138.4873  139.2605  169.3547 H       1  UNL1        0.1734
     14 S         140.1015  140.3981  170.2471 S.O2    1  UNL1        0.0558
     15 C         140.9294  140.9829  171.3528 C.3     1  UNL1        0.1996
     16 O         141.0436  139.2343  170.1573 O.2     1  UNL1       -0.1544
     17 O         139.1594  141.5618  170.3370 O.2     1  UNL1       -0.1544
     18 C         143.0405  142.6817  164.7184 C.3     1  UNL1        0.1343
     19 C         140.6982  144.8398  161.5394 C.ar    1  UNL1        0.1387
     20 C         140.8552  145.4510  162.9002 C.ar    1  UNL1        0.0366
     21 C         141.6361  144.7315  163.9599 C.ar    1  UNL1        0.0007
     22 C         142.2598  143.4010  163.6587 C.ar    1  UNL1        0.0006
     23 C         142.1026  142.7899  162.2979 C.ar    1  UNL1        0.0007
     24 C         141.3219  143.5093  161.2383 C.ar    1  UNL1        0.0366
     25 C         140.2965  145.4082  159.0363 C.3     1  UNL1        0.2525
     26 O         139.9174  145.5591  160.4797 O.3     1  UNL1       -0.4714
@<TRIPOS>BOND
     1    25    26    1
     2    26    19    1
     3    19    20   ar
     4    20    21   ar
     5    21    22   ar
     6    22    18    1
     7    18     1    1
     8     1     2   ar
     9     2     3   ar
    10     3     4   ar
    11     4     5   ar
    12     5    12    1
    13    12    14    1
    14    14    15    1
    15    14    16    2
    16    14    17    2
    17     5     6   ar
    18     6     7    1
    19     6     8   ar
    20     8     9    1
    21     8    10   ar
    22    10    11   ar
    23    22    23   ar
    24    23    24   ar
    25    24    19   ar
    26    11     1   ar
    27    11     4   ar
    28    12    13    1
@<TRIPOS>MOLECULE
*****
 26 28 0 0 0
SMALL
GASTEIGER

@<TRIPOS>ATOM
      1 N         138.5833  142.2512  162.8527 N.ar    1  UNL1       -0.3048
      2 C         138.0150  143.6369  162.7697 C.ar    1  UNL1        0.1788
      3 N         138.9221  144.4588  161.9028 N.ar    1  UNL1       -0.2226
      4 C         140.0511  143.5810  161.4500 C.ar    1  UNL1        0.1129
      5 C         141.2427  143.8478  160.5790 C.ar    1  UNL1        0.0792
      6 C         142.2250  142.7503  160.2950 C.ar    1  UNL1       -0.0096
      7 C         143.4167  143.0171  159.4239 C.3     1  UNL1        0.0321
      8 C         142.0156  141.3859  160.8821 C.ar    1  UNL1       -0.0230
      9 C         142.9978  140.2884  160.5981 C.3     1  UNL1        0.0308
     10 C         140.8238  141.1191  161.7531 C.ar    1  UNL1        0.0143
     11 C         139.8417  142.2167  162.0371 C.ar    1  UNL1        0.0801
     12 N         141.4522  145.2122  159.9919 N.pl3   1  UNL1       -0.2175
     13 H         141.8460  145.9289  160.5401 H       1  UNL1        0.1734
     14 S         141.0616  145.4846  158.5694 S.O2    1  UNL1        0.0558
     15 C         140.6711  145.7571  157.1470 C.3     1  UNL1        0.1996
     16 O         139.7126  144.8804  158.8241 O.2     1  UNL1       -0.1544
     17 O         142.4107  146.0889  158.3148 O.2     1  UNL1       -0.1544
     18 C         137.9962  141.1019  163.6171 C.3     1  UNL1        0.1343
     19 C         139.5835  140.0700  167.6996 C.ar    1  UNL1        0.1387
     20 C         140.0408  141.3219  167.0115 C.ar    1  UNL1        0.0366
     21 C         139.5117  141.6658  165.6506 C.ar    1  UNL1        0.0007
     22 C         138.5253  140.7579  164.9779 C.ar    1  UNL1        0.0006
     23 C         138.0679  139.5059  165.6661 C.ar    1  UNL1        0.0007
     24 C         138.5970  139.1620  167.0269 C.ar    1  UNL1        0.0366
     25 C         139.7555  140.5790  170.2414 C.3     1  UNL1        0.2525
     26 O         140.1125  139.7260  169.0604 O.3     1  UNL1       -0.4714
@<TRIPOS>BOND
     1    25    26    1
     2    26    19    1
     3    19    20   ar
     4    20    21   ar
     5    21    22   ar
     6    22    18    1
     7    18     1    1
     8     1     2   ar
     9     2     3   ar
    10     3     4   ar
    11     4     5   ar
    12     5    12    1
    13    12    14    1
    14    14    15    1
    15    14    16    2
    16    14    17    2
    17     5     6   ar
    18     6     7    1
    19     6     8   ar
    20     8     9    1
    21     8    10   ar
    22    10    11   ar
    23    22    23   ar
    24    23    24   ar
    25    24    19   ar
    26    11     1   ar
    27    11     4   ar
    28    12    13    1
@<TRIPOS>MOLECULE
*****
 26 28 0 0 0
SMALL
GASTEIGER

@<TRIPOS>ATOM
      1 N         141.2972  140.2216  163.7766 N.ar    1  UNL1       -0.3048
      2 C         142.3052  139.9320  162.7042 C.ar    1  UNL1        0.1788
      3 N         142.5284  141.1940  161.9249 N.ar    1  UNL1       -0.2226
      4 C         141.6584  142.2637  162.5156 C.ar    1  UNL1        0.1129
      5 C         141.4607  143.7072  162.1593 C.ar    1  UNL1        0.0792
      6 C         140.5021  144.5499  162.9475 C.ar    1  UNL1       -0.0096
      7 C         140.3045  145.9934  162.5911 C.3     1  UNL1        0.0321
      8 C         139.7412  143.9489  164.0919 C.ar    1  UNL1       -0.0230
      9 C         138.7826  144.7914  164.8801 C.3     1  UNL1        0.0308
     10 C         139.9389  142.5052  164.4482 C.ar    1  UNL1        0.0143
     11 C         140.8974  141.6626  163.6601 C.ar    1  UNL1        0.0801
     12 N         142.2216  144.3082  161.0149 N.pl3   1  UNL1       -0.2175
     13 H         142.8267  145.0689  161.1714 H       1  UNL1        0.1734
     14 S         142.0607  143.7502  159.6318 S.O2    1  UNL1        0.0558
     15 C         141.8999  143.1921  158.2488 C.3     1  UNL1        0.1996
     16 O         140.5932  144.0570  159.6787 O.2     1  UNL1       -0.1544
     17 O         143.5282  143.4434  159.5849 O.2     1  UNL1       -0.1544
     18 C         140.7798  139.2421  164.7881 C.3     1  UNL1        0.1343
     19 C         141.3831  140.0132  169.1803 C.ar    1  UNL1        0.1387
     20 C         142.5508  139.6354  168.3178 C.ar    1  UNL1        0.0366
     21 C         142.3496  139.3784  166.8537 C.ar    1  UNL1        0.0007
     22 C         140.9809  139.4992  166.2521 C.ar    1  UNL1        0.0006
     23 C         139.8132  139.8770  167.1147 C.ar    1  UNL1        0.0007
     24 C         140.0144  140.1340  168.5787 C.ar    1  UNL1        0.0366
     25 C         141.7169  141.6770  171.1475 C.3     1  UNL1        0.2525
     26 O         141.5842  140.2702  170.6444 O.3     1  UNL1       -0.4714
@<TRIPOS>BOND
     1    25    26    1
     2    26    19    1
     3    19    20   ar
     4    20    21   ar
     5    21    22   ar
     6    22    18    1
     7    18     1    1
     8     1     2   ar
     9     2     3   ar
    10     3     4   ar
    11     4     5   ar
    12     5    12    1
    13    12    14    1
    14    14    15    1
    15    14    16    2
    16    14    17    2
    17     5     6   ar
    18     6     7    1
    19     6     8   ar
    20     8     9    1
    21     8    10   ar
    22    10    11   ar
    23    22    23   ar
    24    23    24   ar
    25    24    19   ar
    26    11     1   ar
    27    11     4   ar
    28    12    13    1
@<TRIPOS>MOLECULE
*****
 26 28 0 0 0
SMALL
GASTEIGER

@<TRIPOS>ATOM
      1 N         139.9952  140.3424  164.2059 N.ar    1  UNL1       -0.3048
      2 C         138.8221  141.0339  163.5769 C.ar    1  UNL1        0.1788
      3 N         139.3483  142.0440  162.6008 N.ar    1  UNL1       -0.2226
      4 C         140.8466  141.9767  162.6265 C.ar    1  UNL1        0.1129
      5 C         141.8985  142.7372  161.8748 C.ar    1  UNL1        0.0792
      6 C         143.3503  142.4461  162.1150 C.ar    1  UNL1       -0.0096
      7 C         144.4022  143.2066  161.3633 C.3     1  UNL1        0.0321
      8 C         143.7501  141.3944  163.1071 C.ar    1  UNL1       -0.0230
      9 C         145.2017  141.1032  163.3473 C.3     1  UNL1        0.0308
     10 C         142.6981  140.6338  163.8588 C.ar    1  UNL1        0.0143
     11 C         141.2464  140.9250  163.6185 C.ar    1  UNL1        0.0801
     12 N         141.4987  143.7889  160.8828 N.pl3   1  UNL1       -0.2175
     13 H         141.7864  143.7151  159.9441 H       1  UNL1        0.1734
     14 S         140.6605  144.9533  161.3209 S.O2    1  UNL1        0.0558
     15 C         139.8224  146.1175  161.7590 C.3     1  UNL1        0.1996
     16 O         139.6489  144.6228  160.2638 O.2     1  UNL1       -0.1544
     17 O         141.6721  145.2837  162.3780 O.2     1  UNL1       -0.1544
     18 C         139.9288  139.2584  165.2406 C.3     1  UNL1        0.1343
     19 C         141.0402  140.1510  169.5089 C.ar    1  UNL1        0.1387
     20 C         142.1085  139.8209  168.5090 C.ar    1  UNL1        0.0366
     21 C         141.7380  139.5233  167.0862 C.ar    1  UNL1        0.0007
     22 C         140.2992  139.5559  166.6633 C.ar    1  UNL1        0.0006
     23 C         139.2309  139.8861  167.6633 C.ar    1  UNL1        0.0007
     24 C         139.6014  140.1836  169.0860 C.ar    1  UNL1        0.0366
     25 C         141.7491  141.8514  171.3408 C.3     1  UNL1        0.2525
     26 O         141.4106  140.4486  170.9316 O.3     1  UNL1       -0.4714
@<TRIPOS>BOND
     1    25    26    1
     2    26    19    1
     3    19    20   ar
     4    20    21   ar
     5    21    22   ar
     6    22    18    1
     7    18     1    1
     8     1     2   ar
     9     2     3   ar
    10     3     4   ar
    11     4     5   ar
    12     5    12    1
    13    12    14    1
    14    14    15    1
    15    14    16    2
    16    14    17    2
    17     5     6   ar
    18     6     7    1
    19     6     8   ar
    20     8     9    1
    21     8    10   ar
    22    10    11   ar
    23    22    23   ar
    24    23    24   ar
    25    24    19   ar
    26    11     1   ar
    27    11     4   ar
    28    12    13    1
@<TRIPOS>MOLECULE
*****
 26 28 0 0 0
SMALL
GASTEIGER

@<TRIPOS>ATOM
      1 N         141.3793  138.6492  163.5435 N.ar    1  UNL1       -0.3048
      2 C         142.7202  139.3189  163.6026 C.ar    1  UNL1        0.1788
      3 N         142.8333  140.0134  164.9274 N.ar    1  UNL1       -0.2226
      4 C         141.5624  139.7729  165.6869 C.ar    1  UNL1        0.1129
      5 C         141.1073  140.2127  167.0468 C.ar    1  UNL1        0.0792
      6 C         139.7534  139.8095  167.5515 C.ar    1  UNL1       -0.0096
      7 C         139.2984  140.2493  168.9114 C.3     1  UNL1        0.0321
      8 C         138.8548  138.9664  166.6961 C.ar    1  UNL1       -0.0230
      9 C         137.5010  138.5631  167.2007 C.3     1  UNL1        0.0308
     10 C         139.3099  138.5265  165.3362 C.ar    1  UNL1        0.0143
     11 C         140.6637  138.9298  164.8316 C.ar    1  UNL1        0.0801
     12 N         142.0059  141.0558  167.9021 N.pl3   1  UNL1       -0.2175
     13 H         142.2592  141.9605  167.6076 H       1  UNL1        0.1734
     14 S         142.5187  140.5206  169.2063 S.O2    1  UNL1        0.0558
     15 C         143.0314  139.9854  170.5103 C.3     1  UNL1        0.1996
     16 O         142.9500  139.2591  168.5190 O.2     1  UNL1       -0.1544
     17 O         142.0874  141.7822  169.8935 O.2     1  UNL1       -0.1544
     18 C         140.8473  137.8409  162.3974 C.3     1  UNL1        0.1343
     19 C         138.3179  139.8090  159.2384 C.ar    1  UNL1        0.1387
     20 C         139.6862  139.3000  158.8940 C.ar    1  UNL1        0.0366
     21 C         140.5293  138.6439  159.9471 C.ar    1  UNL1        0.0007
     22 C         140.0041  138.4969  161.3444 C.ar    1  UNL1        0.0006
     23 C         138.6358  139.0060  161.6887 C.ar    1  UNL1        0.0007
     24 C         137.7927  139.6620  160.6357 C.ar    1  UNL1        0.0366
     25 C         137.8679  141.8047  157.6370 C.3     1  UNL1        0.2525
     26 O         137.4748  140.4650  158.1854 O.3     1  UNL1       -0.4714
@<TRIPOS>BOND
     1    25    26    1
     2    26    19    1
     3    19    20   ar
     4    20    21   ar
     5    21    22   ar
     6    22    18    1
     7    18     1    1
     8     1     2   ar
     9     2     3   ar
    10     3     4   ar
    11     4     5   ar
    12     5    12    1
    13    12    14    1
    14    14    15    1
    15    14    16    2
    16    14    17    2
    17     5     6   ar
    18     6     7    1
    19     6     8   ar
    20     8     9    1
    21     8    10   ar
    22    10    11   ar
    23    22    23   ar
    24    23    24   ar
    25    24    19   ar
    26    11     1   ar
    27    11     4   ar
    28    12    13    1
