@<TRIPOS>MOLECULE
*****
 29 33 0 0 0
SMALL
GASTEIGER

@<TRIPOS>ATOM
      1 C         140.4308  143.1027  165.4189 C.ar    1  UNL1        0.0030
      2 C         139.2595  144.0310  165.5463 C.ar    1  UNL1        0.0017
      3 C         138.8817  144.9232  164.4012 C.ar    1  UNL1        0.0206
      4 C         139.6751  144.8870  163.1287 C.ar    1  UNL1        0.0976
      5 N         139.2971  145.7792  161.9836 N.ar    1  UNL1       -0.2391
      6 C         140.0905  145.7430  160.7111 C.ar    1  UNL1        0.1380
      7 C         141.2619  144.8147  160.5838 C.ar    1  UNL1        0.1897
      8 N         142.2239  144.5608  159.4613 N.ar    1  UNL1       -0.1268
      9 N         143.1963  143.5117  159.9126 N.ar    1  UNL1       -0.1287
     10 C         142.8353  143.1172  161.3140 C.ar    1  UNL1        0.1661
     11 N         141.6398  143.9225  161.7288 N.ar    1  UNL1       -0.2714
     12 C         140.8463  143.9587  163.0013 C.ar    1  UNL1        0.0844
     13 C         141.2242  143.0665  164.1464 C.ar    1  UNL1        0.0192
     14 C         143.5452  142.0966  162.1533 C.2     1  UNL1        0.0124
     15 C         142.9488  140.7203  162.1476 C.2     1  UNL1       -0.0247
     16 C         143.4175  139.4949  162.8745 C.3     1  UNL1        0.0578
     17 C         144.5985  139.3429  163.7867 C.3     1  UNL1        0.1468
     18 O         145.6024  140.3789  164.1973 O.3     1  UNL1       -0.3531
     19 C         145.6734  141.8229  163.7971 C.3     1  UNL1        0.1469
     20 C         144.7578  142.5873  162.8874 C.3     1  UNL1        0.0612
     21 C         140.7529  141.6628  169.1030 C.ar    1  UNL1        0.0627
     22 C         141.5646  140.4261  168.8542 C.ar    1  UNL1        0.1000
     23 N         141.9983  140.0816  167.4602 N.ar    1  UNL1       -0.2425
     24 C         141.6204  140.9739  166.3151 C.ar    1  UNL1        0.0988
     25 C         140.8087  142.2105  166.5640 C.ar    1  UNL1        0.0191
     26 C         140.3750  142.5549  167.9580 C.ar    1  UNL1        0.0042
     27 F         140.7785  141.1701  171.6539 F       1  UNL1       -0.1932
     28 C         140.3191  142.0072  170.4970 C.3     1  UNL1        0.3425
     29 F         139.4260  143.1888  170.7342 F       1  UNL1       -0.1932
@<TRIPOS>BOND
     1    27    28    1
     2    28    29    1
     3    28    21    1
     4    21    22   ar
     5    22    23   ar
     6    23    24   ar
     7    24    25   ar
     8    25     1    1
     9     1     2   ar
    10     2     3   ar
    11     3     4   ar
    12     4     5   ar
    13     5     6   ar
    14     6     7   ar
    15     7     8   ar
    16     8     9   ar
    17     9    10   ar
    18    10    14    1
    19    14    15    2
    20    15    16    1
    21    16    17    1
    22    17    18    1
    23    18    19    1
    24    19    20    1
    25    10    11   ar
    26    11    12   ar
    27    12    13   ar
    28    25    26   ar
    29    26    21   ar
    30    13     1   ar
    31    12     4   ar
    32    11     7   ar
    33    20    14    1
@<TRIPOS>MOLECULE
*****
 29 33 0 0 0
SMALL
GASTEIGER

@<TRIPOS>ATOM
      1 C         142.6647  141.5058  165.7118 C.ar    1  UNL1        0.0030
      2 C         143.1449  142.3275  166.8712 C.ar    1  UNL1        0.0017
      3 C         142.4013  142.2935  168.1734 C.ar    1  UNL1        0.0206
      4 C         141.1775  141.4379  168.3162 C.ar    1  UNL1        0.0976
      5 N         140.4339  141.4040  169.6186 N.ar    1  UNL1       -0.2391
      6 C         139.2102  140.5484  169.7614 C.ar    1  UNL1        0.1380
      7 C         138.7300  139.7267  168.6019 C.ar    1  UNL1        0.1897
      8 N         137.5647  138.7953  168.4461 N.ar    1  UNL1       -0.1268
      9 N         137.5880  138.2535  167.0476 N.ar    1  UNL1       -0.1287
     10 C         138.7678  138.8502  166.3390 C.ar    1  UNL1        0.1661
     11 N         139.4736  139.7607  167.2996 N.ar    1  UNL1       -0.2714
     12 C         140.6974  140.6163  167.1568 C.ar    1  UNL1        0.0844
     13 C         141.4410  140.6502  165.8546 C.ar    1  UNL1        0.0192
     14 C         139.1711  138.5832  164.9191 C.2     1  UNL1        0.0124
     15 C         138.4586  139.3931  163.8769 C.2     1  UNL1       -0.0247
     16 C         138.6325  139.3615  162.3874 C.3     1  UNL1        0.0578
     17 C         139.5620  138.5121  161.5721 C.3     1  UNL1        0.1468
     18 O         140.5470  137.4846  162.0451 O.3     1  UNL1       -0.3531
     19 C         140.8460  137.0526  163.4501 C.3     1  UNL1        0.1469
     20 C         140.2336  137.5416  164.7292 C.3     1  UNL1        0.0612
     21 C         144.0977  140.3944  162.1817 C.ar    1  UNL1        0.0627
     22 C         144.8955  141.6075  161.8049 C.ar    1  UNL1        0.1000
     23 N         144.9498  142.7867  162.7304 N.ar    1  UNL1       -0.2425
     24 C         144.2061  142.7528  164.0327 C.ar    1  UNL1        0.0988
     25 C         143.4083  141.5397  164.4095 C.ar    1  UNL1        0.0191
     26 C         143.3541  140.3605  163.4839 C.ar    1  UNL1        0.0042
     27 F         143.7640  137.8460  161.8015 F       1  UNL1       -0.1932
     28 C         144.0434  139.2152  161.2562 C.3     1  UNL1        0.3425
     29 F         144.2685  139.4052  159.7854 F       1  UNL1       -0.1932
@<TRIPOS>BOND
     1    27    28    1
     2    28    29    1
     3    28    21    1
     4    21    22   ar
     5    22    23   ar
     6    23    24   ar
     7    24    25   ar
     8    25     1    1
     9     1     2   ar
    10     2     3   ar
    11     3     4   ar
    12     4     5   ar
    13     5     6   ar
    14     6     7   ar
    15     7     8   ar
    16     8     9   ar
    17     9    10   ar
    18    10    14    1
    19    14    15    2
    20    15    16    1
    21    16    17    1
    22    17    18    1
    23    18    19    1
    24    19    20    1
    25    10    11   ar
    26    11    12   ar
    27    12    13   ar
    28    25    26   ar
    29    26    21   ar
    30    13     1   ar
    31    12     4   ar
    32    11     7   ar
    33    20    14    1
@<TRIPOS>MOLECULE
*****
 29 33 0 0 0
SMALL
GASTEIGER

@<TRIPOS>ATOM
      1 C         140.4625  143.1030  165.3801 C.ar    1  UNL1        0.0030
      2 C         139.2809  144.0093  165.5607 C.ar    1  UNL1        0.0017
      3 C         138.8588  144.9220  164.4477 C.ar    1  UNL1        0.0206
      4 C         139.6183  144.9285  163.1542 C.ar    1  UNL1        0.0976
      5 N         139.1961  145.8413  162.0412 N.ar    1  UNL1       -0.2391
      6 C         139.9555  145.8477  160.7477 C.ar    1  UNL1        0.1380
      7 C         141.1371  144.9414  160.5671 C.ar    1  UNL1        0.1897
      8 N         142.0724  144.7295  159.4138 N.ar    1  UNL1       -0.1268
      9 N         143.0726  143.6857  159.8139 N.ar    1  UNL1       -0.1287
     10 C         142.7554  143.2526  161.2146 C.ar    1  UNL1        0.1661
     11 N         141.5592  144.0287  161.6801 N.ar    1  UNL1       -0.2714
     12 C         140.7998  144.0222  162.9736 C.ar    1  UNL1        0.0844
     13 C         141.2219  143.1095  164.0866 C.ar    1  UNL1        0.0192
     14 C         143.5031  142.2240  162.0101 C.2     1  UNL1        0.0124
     15 C         144.5394  142.7580  162.9540 C.2     1  UNL1       -0.0247
     16 C         145.4441  141.9973  163.8774 C.3     1  UNL1        0.0578
     17 C         145.5362  140.5146  164.0850 C.3     1  UNL1        0.1468
     18 O         144.7461  139.4265  163.4205 O.3     1  UNL1       -0.3531
     19 C         143.6689  139.5521  162.3842 C.3     1  UNL1        0.1469
     20 C         143.1157  140.7972  161.7565 C.3     1  UNL1        0.0612
     21 C         142.1103  140.0475  167.3033 C.ar    1  UNL1        0.0627
     22 C         141.7289  140.3647  168.7190 C.ar    1  UNL1        0.1000
     23 N         140.9254  141.5946  169.0216 N.ar    1  UNL1       -0.2425
     24 C         140.5032  142.5074  167.9087 C.ar    1  UNL1        0.0988
     25 C         140.8846  142.1902  166.4931 C.ar    1  UNL1        0.0191
     26 C         141.6882  140.9603  166.1904 C.ar    1  UNL1        0.0042
     27 F         143.5906  138.0715  168.1121 F       1  UNL1       -0.1932
     28 C         142.9139  138.8176  167.0006 C.3     1  UNL1        0.3425
     29 F         143.0408  138.3339  165.5865 F       1  UNL1       -0.1932
@<TRIPOS>BOND
     1    27    28    1
     2    28    29    1
     3    28    21    1
     4    21    22   ar
     5    22    23   ar
     6    23    24   ar
     7    24    25   ar
     8    25     1    1
     9     1     2   ar
    10     2     3   ar
    11     3     4   ar
    12     4     5   ar
    13     5     6   ar
    14     6     7   ar
    15     7     8   ar
    16     8     9   ar
    17     9    10   ar
    18    10    14    1
    19    14    15    2
    20    15    16    1
    21    16    17    1
    22    17    18    1
    23    18    19    1
    24    19    20    1
    25    10    11   ar
    26    11    12   ar
    27    12    13   ar
    28    25    26   ar
    29    26    21   ar
    30    13     1   ar
    31    12     4   ar
    32    11     7   ar
    33    20    14    1
@<TRIPOS>MOLECULE
*****
 29 33 0 0 0
SMALL
GASTEIGER

@<TRIPOS>ATOM
      1 C         142.6713  141.4322  166.1673 C.ar    1  UNL1        0.0030
      2 C         143.0892  142.2056  167.3826 C.ar    1  UNL1        0.0017
      3 C         142.2620  142.1430  168.6324 C.ar    1  UNL1        0.0206
      4 C         141.0170  141.3071  168.6667 C.ar    1  UNL1        0.0976
      5 N         140.1899  141.2446  169.9166 N.ar    1  UNL1       -0.2391
      6 C         138.9449  140.4086  169.9509 C.ar    1  UNL1        0.1380
      7 C         138.5270  139.6352  168.7354 C.ar    1  UNL1        0.1897
      8 N         137.3583  138.7323  168.4732 N.ar    1  UNL1       -0.1268
      9 N         137.4632  138.2367  167.0613 N.ar    1  UNL1       -0.1287
     10 C         138.6967  138.8334  166.4510 C.ar    1  UNL1        0.1661
     11 N         139.3541  139.6978  167.4857 N.ar    1  UNL1       -0.2714
     12 C         140.5991  140.5337  167.4513 C.ar    1  UNL1        0.0844
     13 C         141.4263  140.5963  166.2016 C.ar    1  UNL1        0.0192
     14 C         139.1867  138.6058  165.0517 C.2     1  UNL1        0.0124
     15 C         140.3045  137.6162  164.9063 C.2     1  UNL1       -0.0247
     16 C         141.0057  137.1743  163.6562 C.3     1  UNL1        0.0578
     17 C         140.7624  137.6128  162.2425 C.3     1  UNL1        0.1468
     18 O         139.7577  138.6016  161.7299 O.3     1  UNL1       -0.3531
     19 C         138.7482  139.3961  162.5043 C.3     1  UNL1        0.1469
     20 C         138.4941  139.3979  163.9827 C.3     1  UNL1        0.0612
     21 C         144.1964  140.4833  162.6284 C.ar    1  UNL1        0.0627
     22 C         145.1527  141.6197  162.4178 C.ar    1  UNL1        0.1000
     23 N         145.2817  142.6936  163.4571 N.ar    1  UNL1       -0.2425
     24 C         144.4546  142.6311  164.7069 C.ar    1  UNL1        0.0988
     25 C         143.4984  141.4947  164.9174 C.ar    1  UNL1        0.0191
     26 C         143.3694  140.4208  163.8782 C.ar    1  UNL1        0.0042
     27 F         143.7669  139.7753  160.1658 F       1  UNL1       -0.1932
     28 C         144.0674  139.4094  161.5891 C.3     1  UNL1        0.3425
     29 F         144.2388  137.9696  161.9732 F       1  UNL1       -0.1932
@<TRIPOS>BOND
     1    27    28    1
     2    28    29    1
     3    28    21    1
     4    21    22   ar
     5    22    23   ar
     6    23    24   ar
     7    24    25   ar
     8    25     1    1
     9     1     2   ar
    10     2     3   ar
    11     3     4   ar
    12     4     5   ar
    13     5     6   ar
    14     6     7   ar
    15     7     8   ar
    16     8     9   ar
    17     9    10   ar
    18    10    14    1
    19    14    15    2
    20    15    16    1
    21    16    17    1
    22    17    18    1
    23    18    19    1
    24    19    20    1
    25    10    11   ar
    26    11    12   ar
    27    12    13   ar
    28    25    26   ar
    29    26    21   ar
    30    13     1   ar
    31    12     4   ar
    32    11     7   ar
    33    20    14    1
@<TRIPOS>MOLECULE
*****
 29 33 0 0 0
SMALL
GASTEIGER

@<TRIPOS>ATOM
      1 C         139.4514  139.1355  165.0520 C.ar    1  UNL1        0.0030
      2 C         138.2809  138.6440  165.8508 C.ar    1  UNL1        0.0017
      3 C         138.1704  138.9855  167.3072 C.ar    1  UNL1        0.0206
      4 C         139.2304  139.8186  167.9647 C.ar    1  UNL1        0.0976
      5 N         139.1198  140.1601  169.4212 N.ar    1  UNL1       -0.2391
      6 C         140.1799  140.9931  170.0788 C.ar    1  UNL1        0.1380
      7 C         141.3505  141.4846  169.2799 C.ar    1  UNL1        0.1897
      8 N         142.5411  142.3174  169.6524 N.ar    1  UNL1       -0.1268
      9 N         143.3875  142.4906  168.4262 N.ar    1  UNL1       -0.1287
     10 C         142.7200  141.7649  167.2959 C.ar    1  UNL1        0.1661
     11 N         141.4610  141.1431  167.8235 N.ar    1  UNL1       -0.2714
     12 C         140.4009  140.3101  167.1659 C.ar    1  UNL1        0.0844
     13 C         140.5115  139.9686  165.7095 C.ar    1  UNL1        0.0192
     14 C         143.2230  141.6764  165.8855 C.2     1  UNL1        0.0124
     15 C         143.7846  140.3468  165.4770 C.2     1  UNL1       -0.0247
     16 C         144.3598  139.9417  164.1523 C.3     1  UNL1        0.0578
     17 C         144.5156  140.7660  162.9088 C.3     1  UNL1        0.1468
     18 O         144.1345  142.1991  162.6830 O.3     1  UNL1       -0.3531
     19 C         143.5036  143.1619  163.6448 C.3     1  UNL1        0.1469
     20 C         143.0980  142.9292  165.0701 C.3     1  UNL1        0.0612
     21 C         141.0154  138.1631  161.5365 C.ar    1  UNL1        0.0627
     22 C         139.7832  138.1110  160.6827 C.ar    1  UNL1        0.1000
     23 N         138.4404  138.4005  161.2853 N.ar    1  UNL1       -0.2425
     24 C         138.3298  138.7420  162.7417 C.ar    1  UNL1        0.0988
     25 C         139.5620  138.7940  163.5955 C.ar    1  UNL1        0.0191
     26 C         140.9048  138.5045  162.9929 C.ar    1  UNL1        0.0042
     27 F         143.5423  137.6310  161.8222 F       1  UNL1       -0.1932
     28 C         142.3582  137.8736  160.9339 C.3     1  UNL1        0.3425
     29 F         142.5168  137.8266  159.4431 F       1  UNL1       -0.1932
@<TRIPOS>BOND
     1    27    28    1
     2    28    29    1
     3    28    21    1
     4    21    22   ar
     5    22    23   ar
     6    23    24   ar
     7    24    25   ar
     8    25     1    1
     9     1     2   ar
    10     2     3   ar
    11     3     4   ar
    12     4     5   ar
    13     5     6   ar
    14     6     7   ar
    15     7     8   ar
    16     8     9   ar
    17     9    10   ar
    18    10    14    1
    19    14    15    2
    20    15    16    1
    21    16    17    1
    22    17    18    1
    23    18    19    1
    24    19    20    1
    25    10    11   ar
    26    11    12   ar
    27    12    13   ar
    28    25    26   ar
    29    26    21   ar
    30    13     1   ar
    31    12     4   ar
    32    11     7   ar
    33    20    14    1
@<TRIPOS>MOLECULE
*****
 29 33 0 0 0
SMALL
GASTEIGER

@<TRIPOS>ATOM
      1 C         139.6034  142.8145  164.2985 C.ar    1  UNL1        0.0030
      2 C         138.5220  143.8421  164.1415 C.ar    1  UNL1        0.0017
      3 C         138.5215  144.7544  162.9509 C.ar    1  UNL1        0.0206
      4 C         139.6023  144.6392  161.9173 C.ar    1  UNL1        0.0976
      5 N         139.6018  145.5516  160.7266 N.ar    1  UNL1       -0.2391
      6 C         140.6827  145.4364  159.6930 C.ar    1  UNL1        0.1380
      7 C         141.7641  144.4088  159.8500 C.ar    1  UNL1        0.1897
      8 N         142.9512  144.0633  159.0007 N.ar    1  UNL1       -0.1268
      9 N         143.6854  142.9374  159.6664 N.ar    1  UNL1       -0.1287
     10 C         142.9521  142.5871  160.9271 C.ar    1  UNL1        0.1661
     11 N         141.7646  143.4965  161.0406 N.ar    1  UNL1       -0.2714
     12 C         140.6838  143.6117  162.0742 C.ar    1  UNL1        0.0844
     13 C         140.6843  142.6993  163.2648 C.ar    1  UNL1        0.0192
     14 C         143.3384  141.5155  161.9031 C.2     1  UNL1        0.0124
     15 C         144.4241  141.8785  162.8723 C.2     1  UNL1       -0.0247
     16 C         145.0274  141.0382  163.9585 C.3     1  UNL1        0.0578
     17 C         144.6941  139.6275  164.3439 C.3     1  UNL1        0.1468
     18 O         143.6750  138.7085  163.7382 O.3     1  UNL1       -0.3531
     19 C         142.7376  138.9733  162.5975 C.3     1  UNL1        0.1469
     20 C         142.5878  140.2226  161.7808 C.3     1  UNL1        0.0612
     21 C         138.8527  139.6927  166.6310 C.ar    1  UNL1        0.0627
     22 C         139.6051  140.0773  167.8704 C.ar    1  UNL1        0.1000
     23 N         140.3569  141.3744  167.9191 N.ar    1  UNL1       -0.2425
     24 C         140.3564  142.2868  166.7285 C.ar    1  UNL1        0.0988
     25 C         139.6040  141.9021  165.4892 C.ar    1  UNL1        0.0191
     26 C         138.8522  140.6051  165.4404 C.ar    1  UNL1        0.0042
     27 F         136.9756  138.1444  167.5418 F       1  UNL1       -0.1932
     28 C         138.1009  138.3956  166.5822 C.3     1  UNL1        0.3425
     29 F         138.4743  137.3497  165.5740 F       1  UNL1       -0.1932
@<TRIPOS>BOND
     1    27    28    1
     2    28    29    1
     3    28    21    1
     4    21    22   ar
     5    22    23   ar
     6    23    24   ar
     7    24    25   ar
     8    25     1    1
     9     1     2   ar
    10     2     3   ar
    11     3     4   ar
    12     4     5   ar
    13     5     6   ar
    14     6     7   ar
    15     7     8   ar
    16     8     9   ar
    17     9    10   ar
    18    10    14    1
    19    14    15    2
    20    15    16    1
    21    16    17    1
    22    17    18    1
    23    18    19    1
    24    19    20    1
    25    10    11   ar
    26    11    12   ar
    27    12    13   ar
    28    25    26   ar
    29    26    21   ar
    30    13     1   ar
    31    12     4   ar
    32    11     7   ar
    33    20    14    1
@<TRIPOS>MOLECULE
*****
 29 33 0 0 0
SMALL
GASTEIGER

@<TRIPOS>ATOM
      1 C         142.7202  141.6498  165.6223 C.ar    1  UNL1        0.0030
      2 C         143.1707  142.4155  166.8309 C.ar    1  UNL1        0.0017
      3 C         142.4102  142.2997  168.1186 C.ar    1  UNL1        0.0206
      4 C         141.1992  141.4181  168.1977 C.ar    1  UNL1        0.0976
      5 N         140.4387  141.3023  169.4855 N.ar    1  UNL1       -0.2391
      6 C         139.2276  140.4207  169.5646 C.ar    1  UNL1        0.1380
      7 C         138.7771  139.6550  168.3560 C.ar    1  UNL1        0.1897
      8 N         137.6298  138.7147  168.1338 N.ar    1  UNL1       -0.1268
      9 N         137.6812  138.2493  166.7087 N.ar    1  UNL1       -0.1287
     10 C         138.8603  138.9021  166.0502 C.ar    1  UNL1        0.1661
     11 N         139.5376  139.7708  167.0683 N.ar    1  UNL1       -0.2714
     12 C         140.7486  140.6524  166.9892 C.ar    1  UNL1        0.0844
     13 C         141.5091  140.7682  165.7015 C.ar    1  UNL1        0.0192
     14 C         139.2872  138.7184  164.6240 C.2     1  UNL1        0.0124
     15 C         138.6739  139.6638  163.6341 C.2     1  UNL1       -0.0247
     16 C         138.8929  139.7378  162.1520 C.3     1  UNL1        0.0578
     17 C         139.7792  138.8848  161.2938 C.3     1  UNL1        0.1468
     18 O         140.6655  137.7469  161.7057 O.3     1  UNL1       -0.3531
     19 C         140.8844  137.1811  163.0775 C.3     1  UNL1        0.1469
     20 C         140.2710  137.6135  164.3763 C.3     1  UNL1        0.0612
     21 C         143.6292  142.5914  161.8757 C.ar    1  UNL1        0.0627
     22 C         145.0016  141.9973  161.7591 C.ar    1  UNL1        0.1000
     23 N         145.6135  141.2873  162.9302 N.ar    1  UNL1       -0.2425
     24 C         144.8530  141.1715  164.2180 C.ar    1  UNL1        0.0988
     25 C         143.4807  141.7656  164.3346 C.ar    1  UNL1        0.0191
     26 C         142.8688  142.4756  163.1635 C.ar    1  UNL1        0.0042
     27 F         141.9203  144.3009  160.9231 F       1  UNL1       -0.1932
     28 C         143.0173  143.3014  160.7046 C.3     1  UNL1        0.3425
     29 F         143.5023  143.0119  159.3151 F       1  UNL1       -0.1932
@<TRIPOS>BOND
     1    27    28    1
     2    28    29    1
     3    28    21    1
     4    21    22   ar
     5    22    23   ar
     6    23    24   ar
     7    24    25   ar
     8    25     1    1
     9     1     2   ar
    10     2     3   ar
    11     3     4   ar
    12     4     5   ar
    13     5     6   ar
    14     6     7   ar
    15     7     8   ar
    16     8     9   ar
    17     9    10   ar
    18    10    14    1
    19    14    15    2
    20    15    16    1
    21    16    17    1
    22    17    18    1
    23    18    19    1
    24    19    20    1
    25    10    11   ar
    26    11    12   ar
    27    12    13   ar
    28    25    26   ar
    29    26    21   ar
    30    13     1   ar
    31    12     4   ar
    32    11     7   ar
    33    20    14    1
@<TRIPOS>MOLECULE
*****
 29 33 0 0 0
SMALL
GASTEIGER

@<TRIPOS>ATOM
      1 C         141.9166  140.0984  166.3450 C.ar    1  UNL1        0.0030
      2 C         142.9719  139.0429  166.4937 C.ar    1  UNL1        0.0017
      3 C         143.7260  138.5615  165.2897 C.ar    1  UNL1        0.0206
      4 C         143.4246  139.1356  163.9370 C.ar    1  UNL1        0.0976
      5 N         144.1787  138.6541  162.7330 N.ar    1  UNL1       -0.2391
      6 C         143.8774  139.2281  161.3804 C.ar    1  UNL1        0.1380
      7 C         142.8220  140.2837  161.2317 C.ar    1  UNL1        0.1897
      8 N         142.3101  141.0296  160.0353 N.ar    1  UNL1       -0.1268
      9 N         141.2397  141.9721  160.4999 N.ar    1  UNL1       -0.1287
     10 C         141.0900  141.8086  161.9834 C.ar    1  UNL1        0.1661
     11 N         142.0680  140.7651  162.4357 N.ar    1  UNL1       -0.2714
     12 C         142.3693  140.1910  163.7884 C.ar    1  UNL1        0.0844
     13 C         141.6153  140.6725  164.9923 C.ar    1  UNL1        0.0192
     14 C         140.1309  142.5572  162.8606 C.2     1  UNL1        0.0124
     15 C         140.6729  143.7968  163.5085 C.2     1  UNL1       -0.0247
     16 C         139.9744  144.7524  164.4298 C.3     1  UNL1        0.0578
     17 C         138.5613  144.7048  164.9307 C.3     1  UNL1        0.1468
     18 O         137.4978  143.6895  164.6340 O.3     1  UNL1       -0.3531
     19 C         137.5845  142.4712  163.7633 C.3     1  UNL1        0.1469
     20 C         138.7564  141.9673  162.9740 C.3     1  UNL1        0.0612
     21 C         140.7788  142.3638  169.3984 C.ar    1  UNL1        0.0627
     22 C         139.6544  141.5429  169.9570 C.ar    1  UNL1        0.1000
     23 N         139.2841  140.2405  169.3115 N.ar    1  UNL1       -0.2425
     24 C         140.0382  139.7590  168.1075 C.ar    1  UNL1        0.0988
     25 C         141.1625  140.5799  167.5490 C.ar    1  UNL1        0.0191
     26 C         141.5328  141.8823  168.1945 C.ar    1  UNL1        0.0042
     27 F         142.5393  143.8755  170.5671 F       1  UNL1       -0.1932
     28 C         141.1491  143.6662  170.0439 C.3     1  UNL1        0.3425
     29 F         140.1293  144.7594  170.1662 F       1  UNL1       -0.1932
@<TRIPOS>BOND
     1    27    28    1
     2    28    29    1
     3    28    21    1
     4    21    22   ar
     5    22    23   ar
     6    23    24   ar
     7    24    25   ar
     8    25     1    1
     9     1     2   ar
    10     2     3   ar
    11     3     4   ar
    12     4     5   ar
    13     5     6   ar
    14     6     7   ar
    15     7     8   ar
    16     8     9   ar
    17     9    10   ar
    18    10    14    1
    19    14    15    2
    20    15    16    1
    21    16    17    1
    22    17    18    1
    23    18    19    1
    24    19    20    1
    25    10    11   ar
    26    11    12   ar
    27    12    13   ar
    28    25    26   ar
    29    26    21   ar
    30    13     1   ar
    31    12     4   ar
    32    11     7   ar
    33    20    14    1
@<TRIPOS>MOLECULE
*****
 29 33 0 0 0
SMALL
GASTEIGER

@<TRIPOS>ATOM
      1 C         139.3685  139.2030  165.2041 C.ar    1  UNL1        0.0030
      2 C         138.2242  138.6852  166.0240 C.ar    1  UNL1        0.0017
      3 C         138.1507  138.9958  167.4896 C.ar    1  UNL1        0.0206
      4 C         139.2216  139.8243  168.1353 C.ar    1  UNL1        0.0976
      5 N         139.1481  140.1349  169.6010 N.ar    1  UNL1       -0.2391
      6 C         140.2190  140.9633  170.2467 C.ar    1  UNL1        0.1380
      7 C         141.3634  141.4811  169.4267 C.ar    1  UNL1        0.1897
      8 N         142.5570  142.3163  169.7840 N.ar    1  UNL1       -0.1268
      9 N         143.3682  142.5219  168.5391 N.ar    1  UNL1       -0.1287
     10 C         142.6759  141.8137  167.4125 C.ar    1  UNL1        0.1661
     11 N         141.4368  141.1705  167.9611 N.ar    1  UNL1       -0.2714
     12 C         140.3659  140.3421  167.3154 C.ar    1  UNL1        0.0844
     13 C         140.4394  140.0314  165.8498 C.ar    1  UNL1        0.0192
     14 C         143.1410  141.7584  165.9875 C.2     1  UNL1        0.0124
     15 C         142.9648  143.0203  165.1959 C.2     1  UNL1       -0.0247
     16 C         143.3249  143.2839  163.7639 C.3     1  UNL1        0.0578
     17 C         143.9501  142.3509  162.7696 C.3     1  UNL1        0.1468
     18 O         144.3696  140.9237  162.9620 O.3     1  UNL1       -0.3531
     19 C         144.2675  140.0770  164.1960 C.3     1  UNL1        0.1469
     20 C         143.7207  140.4485  165.5425 C.3     1  UNL1        0.0612
     21 C         138.5901  139.2693  161.3131 C.ar    1  UNL1        0.0627
     22 C         139.5890  138.2712  160.8071 C.ar    1  UNL1        0.1000
     23 N         140.5144  137.5836  161.7668 N.ar    1  UNL1       -0.2425
     24 C         140.4409  137.8943  163.2325 C.ar    1  UNL1        0.0988
     25 C         139.4420  138.8924  163.7384 C.ar    1  UNL1        0.0191
     26 C         138.5166  139.5799  162.7788 C.ar    1  UNL1        0.0042
     27 F         136.2638  139.4527  160.1709 F       1  UNL1       -0.1932
     28 C         137.6647  139.9569  160.3535 C.3     1  UNL1        0.3425
     29 F         138.1402  141.1485  159.5764 F       1  UNL1       -0.1932
@<TRIPOS>BOND
     1    27    28    1
     2    28    29    1
     3    28    21    1
     4    21    22   ar
     5    22    23   ar
     6    23    24   ar
     7    24    25   ar
     8    25     1    1
     9     1     2   ar
    10     2     3   ar
    11     3     4   ar
    12     4     5   ar
    13     5     6   ar
    14     6     7   ar
    15     7     8   ar
    16     8     9   ar
    17     9    10   ar
    18    10    14    1
    19    14    15    2
    20    15    16    1
    21    16    17    1
    22    17    18    1
    23    18    19    1
    24    19    20    1
    25    10    11   ar
    26    11    12   ar
    27    12    13   ar
    28    25    26   ar
    29    26    21   ar
    30    13     1   ar
    31    12     4   ar
    32    11     7   ar
    33    20    14    1
