@<TRIPOS>MOLECULE
*****
 32 35 0 0 0
SMALL
GASTEIGER

@<TRIPOS>ATOM
      1 C         141.6254  138.4515  164.9498 C.ar    1  UNL1        0.1317
      2 C         141.1847  137.1060  164.4545 C.ar    1  UNL1        0.0548
      3 C         140.0128  136.9961  163.5247 C.ar    1  UNL1        0.1049
      4 N         139.2818  138.2317  163.0901 N.ar    1  UNL1       -0.2105
      5 N         138.1006  138.4340  162.1877 N.ar    1  UNL1       -0.1621
      6 C         137.8115  139.9045  162.1253 C.ar    1  UNL1        0.1236
      7 C         138.8139  140.6110  162.9891 C.ar    1  UNL1        0.0567
      8 C         139.7226  139.5772  163.5853 C.ar    1  UNL1        0.1666
      9 N         140.8944  139.6871  164.5152 N.ar    1  UNL1       -0.2120
     10 C         138.8936  142.0915  163.2167 C.ar    1  UNL1        0.0045
     11 C         137.6417  142.9177  163.2242 C.ar    1  UNL1        0.0001
     12 C         137.7214  144.3982  163.4517 C.ar    1  UNL1       -0.0001
     13 C         139.0530  145.0526  163.6718 C.ar    1  UNL1        0.0039
     14 C         140.3050  144.2264  163.6643 C.ar    1  UNL1        0.0714
     15 C         140.2253  142.7459  163.4367 C.ar    1  UNL1        0.0040
     16 C         141.6368  144.8808  163.8844 C.3     1  UNL1        0.4186
     17 F         142.9684  145.5351  164.1045 F       1  UNL1       -0.1659
     18 F         141.2687  145.9581  162.9078 F       1  UNL1       -0.1659
     19 F         142.0047  143.8034  164.8611 F       1  UNL1       -0.1659
     20 N         142.7973  138.5615  165.8797 N.pl3   1  UNL1       -0.3196
     21 H         143.5405  137.9192  165.8132 H       1  UNL1        0.1481
     22 C         142.9161  141.8272  168.9734 C.3     1  UNL1        0.0248
     23 C         143.1318  142.1570  167.5261 C.3     1  UNL1        0.0040
     24 C         143.0922  141.0684  166.4948 C.3     1  UNL1        0.0196
     25 C         142.8369  139.6501  166.9109 C.3     1  UNL1        0.0704
     26 C         142.6212  139.3203  168.3583 C.3     1  UNL1        0.0196
     27 C         142.6608  140.4089  169.3895 C.3     1  UNL1        0.0040
     28 C         144.4362  142.7241  170.1501 C.3     1  UNL1        0.0293
     29 C         142.9557  142.9158  170.0046 C.3     1  UNL1        0.0884
     30 C         141.4751  143.1075  169.8591 C.3     1  UNL1        0.0293
     31 O         142.9952  144.0044  171.0358 O.3     1  UNL1       -0.3867
     32 H         143.9064  144.1222  171.3468 H       1  UNL1        0.2102
@<TRIPOS>BOND
     1    28    29    1
     2    29    30    1
     3    29    31    1
     4    22    29    1
     5    22    23    1
     6    23    24    1
     7    24    25    1
     8    25    20    1
     9    20     1    1
    10     1     2   ar
    11     2     3   ar
    12     3     4   ar
    13     4     5   ar
    14     5     6   ar
    15     6     7   ar
    16     7    10    1
    17    10    11   ar
    18    11    12   ar
    19    12    13   ar
    20    13    14   ar
    21    14    16    1
    22    16    17    1
    23    16    18    1
    24    16    19    1
    25    14    15   ar
    26     7     8   ar
    27     8     9   ar
    28    25    26    1
    29    26    27    1
    30    27    22    1
    31     9     1   ar
    32     8     4   ar
    33    15    10   ar
    34    31    32    1
    35    20    21    1
@<TRIPOS>MOLECULE
*****
 32 35 0 0 0
SMALL
GASTEIGER

@<TRIPOS>ATOM
      1 C         139.2660  139.8703  168.1683 C.ar    1  UNL1        0.1317
      2 C         139.0561  140.0602  169.6413 C.ar    1  UNL1        0.0548
      3 C         140.0645  140.8205  170.4506 C.ar    1  UNL1        0.1049
      4 N         141.2828  141.3909  169.7869 N.ar    1  UNL1       -0.2105
      5 N         142.4406  142.1803  170.3221 N.ar    1  UNL1       -0.1621
      6 C         143.3660  142.4782  169.1798 C.ar    1  UNL1        0.1236
      7 C         142.7801  141.8730  167.9386 C.ar    1  UNL1        0.0567
      8 C         141.4926  141.2010  168.3138 C.ar    1  UNL1        0.1666
      9 N         140.4842  140.4407  167.5045 N.ar    1  UNL1       -0.2120
     10 C         143.3769  141.9298  166.5636 C.ar    1  UNL1        0.0045
     11 C         143.9506  143.2161  166.0476 C.ar    1  UNL1        0.0001
     12 C         144.5474  143.2729  164.6726 C.ar    1  UNL1       -0.0001
     13 C         144.5705  142.0434  163.8136 C.ar    1  UNL1        0.0039
     14 C         143.9968  140.7571  164.3297 C.ar    1  UNL1        0.0714
     15 C         143.4000  140.7004  165.7047 C.ar    1  UNL1        0.0040
     16 C         144.0199  139.5276  163.4707 C.3     1  UNL1        0.4186
     17 F         144.0430  138.2981  162.6118 F       1  UNL1       -0.1659
     18 F         145.2887  139.0857  164.1374 F       1  UNL1       -0.1659
     19 F         142.7509  139.9695  162.8040 F       1  UNL1       -0.1659
     20 N         138.2575  139.1100  167.3589 N.pl3   1  UNL1       -0.3196
     21 H         137.4868  138.6882  167.8031 H       1  UNL1        0.1481
     22 C         138.7552  138.7569  162.9005 C.3     1  UNL1        0.0248
     23 C         139.0706  137.5875  163.7852 C.3     1  UNL1        0.0040
     24 C         138.9047  137.7051  165.2714 C.3     1  UNL1        0.0196
     25 C         138.4234  138.9923  165.8728 C.3     1  UNL1        0.0704
     26 C         138.1080  140.1618  164.9879 C.3     1  UNL1        0.0196
     27 C         138.2739  140.0441  163.5018 C.3     1  UNL1        0.0040
     28 C         140.2742  138.0234  161.6142 C.3     1  UNL1        0.0293
     29 C         138.9211  138.6392  161.4143 C.3     1  UNL1        0.0884
     30 C         137.5681  139.2550  161.2145 C.3     1  UNL1        0.0293
     31 O         139.0870  138.5215  159.9281 O.3     1  UNL1       -0.3867
     32 H         139.9477  138.1207  159.7296 H       1  UNL1        0.2102
@<TRIPOS>BOND
     1    28    29    1
     2    29    30    1
     3    29    31    1
     4    22    29    1
     5    22    23    1
     6    23    24    1
     7    24    25    1
     8    25    20    1
     9    20     1    1
    10     1     2   ar
    11     2     3   ar
    12     3     4   ar
    13     4     5   ar
    14     5     6   ar
    15     6     7   ar
    16     7    10    1
    17    10    11   ar
    18    11    12   ar
    19    12    13   ar
    20    13    14   ar
    21    14    16    1
    22    16    17    1
    23    16    18    1
    24    16    19    1
    25    14    15   ar
    26     7     8   ar
    27     8     9   ar
    28    25    26    1
    29    26    27    1
    30    27    22    1
    31     9     1   ar
    32     8     4   ar
    33    15    10   ar
    34    31    32    1
    35    20    21    1
@<TRIPOS>MOLECULE
*****
 32 35 0 0 0
SMALL
GASTEIGER

@<TRIPOS>ATOM
      1 C         139.4129  138.9346  165.3865 C.ar    1  UNL1        0.1317
      2 C         138.7506  137.7935  164.6728 C.ar    1  UNL1        0.0548
      3 C         139.3289  137.2744  163.3898 C.ar    1  UNL1        0.1049
      4 N         140.5695  137.8964  162.8205 N.ar    1  UNL1       -0.2105
      5 N         141.3636  137.6001  161.5829 N.ar    1  UNL1       -0.1621
      6 C         142.5167  138.5581  161.5317 C.ar    1  UNL1        0.1236
      7 C         142.4352  139.4464  162.7377 C.ar    1  UNL1        0.0567
      8 C         141.2318  139.0374  163.5342 C.ar    1  UNL1        0.1666
      9 N         140.6535  139.5565  164.8172 N.ar    1  UNL1       -0.2120
     10 C         143.3896  140.5499  163.0860 C.ar    1  UNL1        0.0045
     11 C         144.8527  140.2561  163.2379 C.ar    1  UNL1        0.0001
     12 C         145.8071  141.3596  163.5863 C.ar    1  UNL1       -0.0001
     13 C         145.2985  142.7570  163.7826 C.ar    1  UNL1        0.0039
     14 C         143.8354  143.0509  163.6306 C.ar    1  UNL1        0.0714
     15 C         142.8810  141.9473  163.2823 C.ar    1  UNL1        0.0040
     16 C         143.3267  144.4483  163.8269 C.3     1  UNL1        0.4186
     17 F         142.8180  145.8457  164.0233 F       1  UNL1       -0.1659
     18 F         142.2852  143.9357  164.7768 F       1  UNL1       -0.1659
     19 F         144.3683  144.9609  162.8770 F       1  UNL1       -0.1659
     20 N         138.8346  139.4537  166.6695 N.pl3   1  UNL1       -0.3196
     21 H         137.9314  139.1792  166.9490 H       1  UNL1        0.1481
     22 C         141.2281  142.2660  169.2409 C.3     1  UNL1        0.0248
     23 C         140.8994  140.8900  169.7393 C.3     1  UNL1        0.0040
     24 C         140.1016  139.9525  168.8822 C.3     1  UNL1        0.0196
     25 C         139.6324  140.3911  167.5266 C.3     1  UNL1        0.0704
     26 C         139.9611  141.7673  167.0282 C.3     1  UNL1        0.0196
     27 C         140.7589  142.7047  167.8854 C.3     1  UNL1        0.0040
     28 C         140.8339  144.1056  170.2209 C.3     1  UNL1        0.0293
     29 C         142.0259  143.2035  170.0980 C.3     1  UNL1        0.0884
     30 C         143.2179  142.3013  169.9752 C.3     1  UNL1        0.0293
     31 O         142.8238  144.1409  170.9552 O.3     1  UNL1       -0.3867
     32 H         142.2690  144.8930  171.2149 H       1  UNL1        0.2102
@<TRIPOS>BOND
     1    28    29    1
     2    29    30    1
     3    29    31    1
     4    22    29    1
     5    22    23    1
     6    23    24    1
     7    24    25    1
     8    25    20    1
     9    20     1    1
    10     1     2   ar
    11     2     3   ar
    12     3     4   ar
    13     4     5   ar
    14     5     6   ar
    15     6     7   ar
    16     7    10    1
    17    10    11   ar
    18    11    12   ar
    19    12    13   ar
    20    13    14   ar
    21    14    16    1
    22    16    17    1
    23    16    18    1
    24    16    19    1
    25    14    15   ar
    26     7     8   ar
    27     8     9   ar
    28    25    26    1
    29    26    27    1
    30    27    22    1
    31     9     1   ar
    32     8     4   ar
    33    15    10   ar
    34    31    32    1
    35    20    21    1
@<TRIPOS>MOLECULE
*****
 32 35 0 0 0
SMALL
GASTEIGER

@<TRIPOS>ATOM
      1 C         138.8776  139.5742  163.5175 C.ar    1  UNL1        0.1317
      2 C         137.8138  139.2866  162.5000 C.ar    1  UNL1        0.0548
      3 C         137.6341  140.2003  161.3241 C.ar    1  UNL1        0.1049
      4 N         138.5182  141.4016  161.1657 N.ar    1  UNL1       -0.2105
      5 N         138.5761  142.4742  160.1185 N.ar    1  UNL1       -0.1621
      6 C         139.6758  143.4246  160.4890 C.ar    1  UNL1        0.1236
      7 C         140.2975  142.9396  161.7651 C.ar    1  UNL1        0.0567
      8 C         139.5820  141.6893  162.1833 C.ar    1  UNL1        0.1666
      9 N         139.7617  140.7756  163.3592 N.ar    1  UNL1       -0.2120
     10 C         141.4349  143.5905  162.4948 C.ar    1  UNL1        0.0045
     11 C         141.3221  145.0191  162.9379 C.ar    1  UNL1        0.0001
     12 C         142.4596  145.6701  163.6676 C.ar    1  UNL1       -0.0001
     13 C         143.7098  144.8924  163.9544 C.ar    1  UNL1        0.0039
     14 C         143.8225  143.4638  163.5113 C.ar    1  UNL1        0.0714
     15 C         142.6851  142.8129  162.7816 C.ar    1  UNL1        0.0040
     16 C         145.0727  142.6860  163.7980 C.3     1  UNL1        0.4186
     17 F         146.3229  141.9083  164.0847 F       1  UNL1       -0.1659
     18 F         145.1658  142.3022  162.3510 F       1  UNL1       -0.1659
     19 F         144.9796  143.0699  165.2451 F       1  UNL1       -0.1659
     20 N         139.0574  138.6605  164.6935 N.pl3   1  UNL1       -0.3196
     21 H         138.5876  137.7957  164.7213 H       1  UNL1        0.1481
     22 C         141.7436  139.8721  168.0944 C.3     1  UNL1        0.0248
     23 C         142.3288  139.2491  166.8617 C.3     1  UNL1        0.0040
     24 C         141.4334  138.8452  165.7281 C.3     1  UNL1        0.0196
     25 C         139.9528  139.0644  165.8271 C.3     1  UNL1        0.0704
     26 C         139.3676  139.6874  167.0598 C.3     1  UNL1        0.0196
     27 C         140.2630  140.0913  168.1934 C.3     1  UNL1        0.0040
     28 C         142.4146  138.9438  169.8798 C.3     1  UNL1        0.0293
     29 C         142.6390  140.2760  169.2280 C.3     1  UNL1        0.0884
     30 C         142.8634  141.6082  168.5761 C.3     1  UNL1        0.0293
     31 O         143.5345  140.6799  170.3616 O.3     1  UNL1       -0.3867
     32 H         143.5907  139.9548  171.0034 H       1  UNL1        0.2102
@<TRIPOS>BOND
     1    28    29    1
     2    29    30    1
     3    29    31    1
     4    22    29    1
     5    22    23    1
     6    23    24    1
     7    24    25    1
     8    25    20    1
     9    20     1    1
    10     1     2   ar
    11     2     3   ar
    12     3     4   ar
    13     4     5   ar
    14     5     6   ar
    15     6     7   ar
    16     7    10    1
    17    10    11   ar
    18    11    12   ar
    19    12    13   ar
    20    13    14   ar
    21    14    16    1
    22    16    17    1
    23    16    18    1
    24    16    19    1
    25    14    15   ar
    26     7     8   ar
    27     8     9   ar
    28    25    26    1
    29    26    27    1
    30    27    22    1
    31     9     1   ar
    32     8     4   ar
    33    15    10   ar
    34    31    32    1
    35    20    21    1
@<TRIPOS>MOLECULE
*****
 32 35 0 0 0
SMALL
GASTEIGER

@<TRIPOS>ATOM
      1 C         139.6432  138.9192  164.5066 C.ar    1  UNL1        0.1317
      2 C         138.8580  137.9125  163.7193 C.ar    1  UNL1        0.0548
      3 C         138.2758  138.2894  162.3893 C.ar    1  UNL1        0.1049
      4 N         138.4787  139.6730  161.8467 N.ar    1  UNL1       -0.2105
      5 N         138.0277  140.3286  160.5751 N.ar    1  UNL1       -0.1621
      6 C         138.5342  141.7405  160.5766 C.ar    1  UNL1        0.1236
      7 C         139.2982  141.9575  161.8491 C.ar    1  UNL1        0.0567
      8 C         139.2639  140.6797  162.6341 C.ar    1  UNL1        0.1666
      9 N         139.8461  140.3028  163.9640 N.ar    1  UNL1       -0.2120
     10 C         139.9773  143.2290  162.2639 C.ar    1  UNL1        0.0045
     11 C         139.3756  144.5539  161.8997 C.ar    1  UNL1        0.0001
     12 C         140.0547  145.8255  162.3145 C.ar    1  UNL1       -0.0001
     13 C         141.3354  145.7722  163.0935 C.ar    1  UNL1        0.0039
     14 C         141.9371  144.4473  163.4576 C.ar    1  UNL1        0.0714
     15 C         141.2580  143.1757  163.0429 C.ar    1  UNL1        0.0040
     16 C         143.2179  144.3939  164.2367 C.3     1  UNL1        0.4186
     17 F         144.4986  144.3406  165.0156 F       1  UNL1       -0.1659
     18 F         143.7961  145.4642  163.3591 F       1  UNL1       -0.1659
     19 F         142.6396  143.3236  165.1142 F       1  UNL1       -0.1659
     20 N         140.2255  138.5423  165.8367 N.pl3   1  UNL1       -0.3196
     21 H         140.3017  137.5939  166.0897 H       1  UNL1        0.1481
     22 C         141.6240  141.7465  168.6700 C.3     1  UNL1        0.0248
     23 C         142.5895  141.1254  167.7046 C.3     1  UNL1        0.0040
     24 C         142.1234  140.0573  166.7601 C.3     1  UNL1        0.0196
     25 C         140.6917  139.6103  166.7811 C.3     1  UNL1        0.0704
     26 C         139.7261  140.2315  167.7465 C.3     1  UNL1        0.0196
     27 C         140.1923  141.2995  168.6909 C.3     1  UNL1        0.0040
     28 C         140.7053  143.3899  169.6471 C.3     1  UNL1        0.0293
     29 C         142.0901  142.8145  169.6144 C.3     1  UNL1        0.0884
     30 C         143.4749  142.2390  169.5816 C.3     1  UNL1        0.0293
     31 O         142.5564  143.8826  170.5589 O.3     1  UNL1       -0.3867
     32 H         141.8126  144.4637  170.7824 H       1  UNL1        0.2102
@<TRIPOS>BOND
     1    28    29    1
     2    29    30    1
     3    29    31    1
     4    22    29    1
     5    22    23    1
     6    23    24    1
     7    24    25    1
     8    25    20    1
     9    20     1    1
    10     1     2   ar
    11     2     3   ar
    12     3     4   ar
    13     4     5   ar
    14     5     6   ar
    15     6     7   ar
    16     7    10    1
    17    10    11   ar
    18    11    12   ar
    19    12    13   ar
    20    13    14   ar
    21    14    16    1
    22    16    17    1
    23    16    18    1
    24    16    19    1
    25    14    15   ar
    26     7     8   ar
    27     8     9   ar
    28    25    26    1
    29    26    27    1
    30    27    22    1
    31     9     1   ar
    32     8     4   ar
    33    15    10   ar
    34    31    32    1
    35    20    21    1
@<TRIPOS>MOLECULE
*****
 32 35 0 0 0
SMALL
GASTEIGER

@<TRIPOS>ATOM
      1 C         142.5648  139.7172  164.5459 C.ar    1  UNL1        0.1317
      2 C         143.9089  139.1122  164.2677 C.ar    1  UNL1        0.0548
      3 C         144.8336  139.7609  163.2808 C.ar    1  UNL1        0.1049
      4 N         144.4143  141.0147  162.5722 N.ar    1  UNL1       -0.2105
      5 N         145.1072  141.8724  161.5551 N.ar    1  UNL1       -0.1621
      6 C         144.1914  143.0075  161.2048 C.ar    1  UNL1        0.1236
      7 C         142.9325  142.8514  162.0054 C.ar    1  UNL1        0.0567
      8 C         143.0702  141.6197  162.8504 C.ar    1  UNL1        0.1666
      9 N         142.1455  140.9710  163.8373 N.ar    1  UNL1       -0.2120
     10 C         141.7444  143.7662  161.9675 C.ar    1  UNL1        0.0045
     11 C         141.5619  144.7114  160.8171 C.ar    1  UNL1        0.0001
     12 C         140.3738  145.6262  160.7793 C.ar    1  UNL1       -0.0001
     13 C         139.3681  145.5960  161.8917 C.ar    1  UNL1        0.0039
     14 C         139.5506  144.6508  163.0421 C.ar    1  UNL1        0.0714
     15 C         140.7387  143.7360  163.0800 C.ar    1  UNL1        0.0040
     16 C         138.5449  144.6206  164.1547 C.3     1  UNL1        0.4186
     17 F         137.5393  144.5903  165.2673 F       1  UNL1       -0.1659
     18 F         139.6557  144.6874  165.1605 F       1  UNL1       -0.1659
     19 F         137.4341  144.5537  163.1489 F       1  UNL1       -0.1659
     20 N         141.6400  139.0685  165.5329 N.pl3   1  UNL1       -0.3196
     21 H         141.1809  138.2295  165.2993 H       1  UNL1        0.1481
     22 C         140.9645  140.9571  169.5611 C.3     1  UNL1        0.0248
     23 C         139.7974  140.4596  168.7608 C.3     1  UNL1        0.0040
     24 C         140.0226  139.8300  167.4180 C.3     1  UNL1        0.0196
     25 C         141.4148  139.6980  166.8756 C.3     1  UNL1        0.0704
     26 C         142.5819  140.1955  167.6759 C.3     1  UNL1        0.0196
     27 C         142.3567  140.8250  169.0187 C.3     1  UNL1        0.0040
     28 C         141.8111  140.7171  171.4912 C.3     1  UNL1        0.0293
     29 C         140.7393  141.5866  170.9038 C.3     1  UNL1        0.0884
     30 C         139.6674  142.4561  170.3164 C.3     1  UNL1        0.0293
     31 O         140.5140  142.2162  172.2466 O.3     1  UNL1       -0.3867
     32 H         141.1190  141.8218  172.8942 H       1  UNL1        0.2102
@<TRIPOS>BOND
     1    28    29    1
     2    29    30    1
     3    29    31    1
     4    22    29    1
     5    22    23    1
     6    23    24    1
     7    24    25    1
     8    25    20    1
     9    20     1    1
    10     1     2   ar
    11     2     3   ar
    12     3     4   ar
    13     4     5   ar
    14     5     6   ar
    15     6     7   ar
    16     7    10    1
    17    10    11   ar
    18    11    12   ar
    19    12    13   ar
    20    13    14   ar
    21    14    16    1
    22    16    17    1
    23    16    18    1
    24    16    19    1
    25    14    15   ar
    26     7     8   ar
    27     8     9   ar
    28    25    26    1
    29    26    27    1
    30    27    22    1
    31     9     1   ar
    32     8     4   ar
    33    15    10   ar
    34    31    32    1
    35    20    21    1
@<TRIPOS>MOLECULE
*****
 32 35 0 0 0
SMALL
GASTEIGER

@<TRIPOS>ATOM
      1 C         139.6423  139.0318  160.1344 C.ar    1  UNL1        0.1317
      2 C         139.5643  138.8934  158.6429 C.ar    1  UNL1        0.0548
      3 C         140.7001  139.3674  157.7854 C.ar    1  UNL1        0.1049
      4 N         141.9137  139.9799  158.4194 N.ar    1  UNL1       -0.2105
      5 N         143.1797  140.5337  157.8357 N.ar    1  UNL1       -0.1621
      6 C         144.0400  141.0143  158.9665 C.ar    1  UNL1        0.1236
      7 C         143.3058  140.7576  160.2491 C.ar    1  UNL1        0.0567
      8 C         141.9916  140.1182  159.9109 C.ar    1  UNL1        0.1666
      9 N         140.8559  139.6442  160.7685 N.ar    1  UNL1       -0.2120
     10 C         143.7990  141.0830  161.6278 C.ar    1  UNL1        0.0045
     11 C         144.4018  140.0074  162.4820 C.ar    1  UNL1        0.0001
     12 C         144.8950  140.3328  163.8607 C.ar    1  UNL1       -0.0001
     13 C         144.7856  141.7338  164.3852 C.ar    1  UNL1        0.0039
     14 C         144.1828  142.8094  163.5310 C.ar    1  UNL1        0.0714
     15 C         143.6895  142.4840  162.1523 C.ar    1  UNL1        0.0040
     16 C         144.0733  144.2105  164.0555 C.3     1  UNL1        0.4186
     17 F         143.9638  145.6115  164.5800 F       1  UNL1       -0.1659
     18 F         144.5865  143.7517  165.3881 F       1  UNL1       -0.1659
     19 F         143.5601  144.6693  162.7227 F       1  UNL1       -0.1659
     20 N         138.5065  138.5577  160.9920 N.pl3   1  UNL1       -0.3196
     21 H         137.7245  138.1257  160.5785 H       1  UNL1        0.1481
     22 C         138.6740  139.1103  165.4548 C.3     1  UNL1        0.0248
     23 C         139.1263  137.8183  164.8416 C.3     1  UNL1        0.0040
     24 C         139.0705  137.6340  163.3540 C.3     1  UNL1        0.0196
     25 C         138.5623  138.7419  162.4796 C.3     1  UNL1        0.0704
     26 C         138.1100  140.0340  163.0929 C.3     1  UNL1        0.0196
     27 C         138.1659  140.2181  164.5805 C.3     1  UNL1        0.0040
     28 C         139.9141  140.2016  166.7857 C.3     1  UNL1        0.0293
     29 C         138.7298  139.2945  166.9424 C.3     1  UNL1        0.0884
     30 C         137.5455  138.3874  167.0992 C.3     1  UNL1        0.0293
     31 O         138.7856  139.4786  168.4301 O.3     1  UNL1       -0.3867
     32 H         139.5197  140.0714  168.6552 H       1  UNL1        0.2102
@<TRIPOS>BOND
     1    28    29    1
     2    29    30    1
     3    29    31    1
     4    22    29    1
     5    22    23    1
     6    23    24    1
     7    24    25    1
     8    25    20    1
     9    20     1    1
    10     1     2   ar
    11     2     3   ar
    12     3     4   ar
    13     4     5   ar
    14     5     6   ar
    15     6     7   ar
    16     7    10    1
    17    10    11   ar
    18    11    12   ar
    19    12    13   ar
    20    13    14   ar
    21    14    16    1
    22    16    17    1
    23    16    18    1
    24    16    19    1
    25    14    15   ar
    26     7     8   ar
    27     8     9   ar
    28    25    26    1
    29    26    27    1
    30    27    22    1
    31     9     1   ar
    32     8     4   ar
    33    15    10   ar
    34    31    32    1
    35    20    21    1
@<TRIPOS>MOLECULE
*****
 32 35 0 0 0
SMALL
GASTEIGER

@<TRIPOS>ATOM
      1 C         143.1399  142.9610  164.2328 C.ar    1  UNL1        0.1317
      2 C         143.5758  144.3480  163.8639 C.ar    1  UNL1        0.0548
      3 C         142.8325  145.1119  162.8084 C.ar    1  UNL1        0.1049
      4 N         141.6533  144.4888  162.1220 N.ar    1  UNL1       -0.2105
      5 N         140.7324  144.9948  161.0515 N.ar    1  UNL1       -0.1621
      6 C         139.7273  143.9205  160.7589 C.ar    1  UNL1        0.1236
      7 C         140.0271  142.7506  161.6485 C.ar    1  UNL1        0.0567
      8 C         141.2174  143.1018  162.4910 C.ar    1  UNL1        0.1666
      9 N         141.9607  142.3379  163.5464 N.ar    1  UNL1       -0.2120
     10 C         139.2695  141.4566  161.6887 C.ar    1  UNL1        0.0045
     11 C         138.3424  141.0951  160.5663 C.ar    1  UNL1        0.0001
     12 C         137.5848  139.8011  160.6065 C.ar    1  UNL1       -0.0001
     13 C         137.7543  138.8685  161.7690 C.ar    1  UNL1        0.0039
     14 C         138.6815  139.2300  162.8914 C.ar    1  UNL1        0.0714
     15 C         139.4390  140.5240  162.8512 C.ar    1  UNL1        0.0040
     16 C         138.8511  138.2973  164.0540 C.3     1  UNL1        0.4186
     17 F         139.0206  137.3648  165.2166 F       1  UNL1       -0.1659
     18 F         139.1342  139.4663  164.9503 F       1  UNL1       -0.1659
     19 F         138.5679  137.1285  163.1576 F       1  UNL1       -0.1659
     20 N         143.8832  142.1971  165.2883 N.pl3   1  UNL1       -0.3196
     21 H         144.8587  142.0837  165.2188 H       1  UNL1        0.1481
     22 C         141.6543  140.4234  168.7720 C.3     1  UNL1        0.0248
     23 C         142.3610  141.7377  168.9245 C.3     1  UNL1        0.0040
     24 C         143.1040  142.3289  167.7632 C.3     1  UNL1        0.0196
     25 C         143.1403  141.6059  166.4495 C.3     1  UNL1        0.0704
     26 C         142.4335  140.2916  166.2970 C.3     1  UNL1        0.0196
     27 C         141.6906  139.7004  167.4583 C.3     1  UNL1        0.0040
     28 C         139.6877  140.6082  169.5453 C.3     1  UNL1        0.0293
     29 C         140.9113  139.8323  169.9332 C.3     1  UNL1        0.0884
     30 C         142.1350  139.0563  170.3210 C.3     1  UNL1        0.0293
     31 O         140.1684  139.2410  171.0945 O.3     1  UNL1       -0.3867
     32 H         139.2622  139.5867  171.1083 H       1  UNL1        0.2102
@<TRIPOS>BOND
     1    28    29    1
     2    29    30    1
     3    29    31    1
     4    22    29    1
     5    22    23    1
     6    23    24    1
     7    24    25    1
     8    25    20    1
     9    20     1    1
    10     1     2   ar
    11     2     3   ar
    12     3     4   ar
    13     4     5   ar
    14     5     6   ar
    15     6     7   ar
    16     7    10    1
    17    10    11   ar
    18    11    12   ar
    19    12    13   ar
    20    13    14   ar
    21    14    16    1
    22    16    17    1
    23    16    18    1
    24    16    19    1
    25    14    15   ar
    26     7     8   ar
    27     8     9   ar
    28    25    26    1
    29    26    27    1
    30    27    22    1
    31     9     1   ar
    32     8     4   ar
    33    15    10   ar
    34    31    32    1
    35    20    21    1
@<TRIPOS>MOLECULE
*****
 32 35 0 0 0
SMALL
GASTEIGER

@<TRIPOS>ATOM
      1 C         143.6675  142.1877  164.6890 C.ar    1  UNL1        0.1317
      2 C         145.0176  142.4211  164.0786 C.ar    1  UNL1        0.0548
      3 C         145.4022  141.7108  162.8147 C.ar    1  UNL1        0.1049
      4 N         144.4368  140.7669  162.1612 N.ar    1  UNL1       -0.2105
      5 N         144.5351  139.9308  160.9197 N.ar    1  UNL1       -0.1621
      6 C         143.2457  139.1805  160.7629 C.ar    1  UNL1        0.1236
      7 C         142.3505  139.5530  161.9074 C.ar    1  UNL1        0.0567
      8 C         143.0867  140.5335  162.7716 C.ar    1  UNL1        0.1666
      9 N         142.7020  141.2438  164.0355 N.ar    1  UNL1       -0.2120
     10 C         140.9629  139.0358  162.1459 C.ar    1  UNL1        0.0045
     11 C         140.1294  138.5645  160.9913 C.ar    1  UNL1        0.0001
     12 C         138.7417  138.0473  161.2298 C.ar    1  UNL1       -0.0001
     13 C         138.1875  138.0015  162.6228 C.ar    1  UNL1        0.0039
     14 C         139.0209  138.4728  163.7775 C.ar    1  UNL1        0.0714
     15 C         140.4086  138.9900  163.5390 C.ar    1  UNL1        0.0040
     16 C         138.4667  138.4270  165.1707 C.3     1  UNL1        0.4186
     17 F         137.9125  138.3811  166.5637 F       1  UNL1       -0.1659
     18 F         139.0072  137.0381  165.3399 F       1  UNL1       -0.1659
     19 F         137.9262  139.8159  165.0013 F       1  UNL1       -0.1659
     20 N         143.2828  142.8980  165.9529 N.pl3   1  UNL1       -0.3196
     21 H         143.5143  143.8472  166.0741 H       1  UNL1        0.1481
     22 C         141.0708  140.6904  169.1907 C.3     1  UNL1        0.0248
     23 C         140.5655  142.0177  168.7081 C.3     1  UNL1        0.0040
     24 C         141.3028  142.7536  167.6288 C.3     1  UNL1        0.0196
     25 C         142.5455  142.1622  167.0321 C.3     1  UNL1        0.0704
     26 C         143.0508  140.8348  167.5148 C.3     1  UNL1        0.0196
     27 C         142.3134  140.0990  168.5940 C.3     1  UNL1        0.0040
     28 C         141.5949  139.2318  170.6390 C.3     1  UNL1        0.0293
     29 C         140.3335  139.9546  170.2700 C.3     1  UNL1        0.0884
     30 C         139.0720  140.6774  169.9010 C.3     1  UNL1        0.0293
     31 O         139.5961  139.2187  171.3493 O.3     1  UNL1       -0.3867
     32 H         140.2062  138.6194  171.8069 H       1  UNL1        0.2102
@<TRIPOS>BOND
     1    28    29    1
     2    29    30    1
     3    29    31    1
     4    22    29    1
     5    22    23    1
     6    23    24    1
     7    24    25    1
     8    25    20    1
     9    20     1    1
    10     1     2   ar
    11     2     3   ar
    12     3     4   ar
    13     4     5   ar
    14     5     6   ar
    15     6     7   ar
    16     7    10    1
    17    10    11   ar
    18    11    12   ar
    19    12    13   ar
    20    13    14   ar
    21    14    16    1
    22    16    17    1
    23    16    18    1
    24    16    19    1
    25    14    15   ar
    26     7     8   ar
    27     8     9   ar
    28    25    26    1
    29    26    27    1
    30    27    22    1
    31     9     1   ar
    32     8     4   ar
    33    15    10   ar
    34    31    32    1
    35    20    21    1
