@<TRIPOS>MOLECULE
*****
 28 31 0 0 0
SMALL
GASTEIGER

@<TRIPOS>ATOM
      1 C         140.9407  140.7586  167.2584 C.ar    1  UNL1        0.1351
      2 C         141.5778  139.5405  166.6581 C.ar    1  UNL1        0.0550
      3 C         141.0159  138.9415  165.4029 C.ar    1  UNL1        0.1045
      4 N         141.6530  137.7235  164.8026 N.ar    1  UNL1       -0.2405
      5 C         141.0910  137.1246  163.5475 C.ar    1  UNL1        0.1195
      6 C         139.8919  137.7437  162.8926 C.ar    1  UNL1        0.1196
      7 N         139.2548  138.9618  163.4929 N.ar    1  UNL1       -0.2379
      8 C         139.8168  139.5607  164.7480 C.ar    1  UNL1        0.1302
      9 C         139.1797  140.7788  165.3484 C.ar    1  UNL1        0.1491
     10 N         139.7417  141.3777  166.6035 N.ar    1  UNL1       -0.2146
     11 O         140.3511  142.1821  172.2209 O.2     1  UNL1       -0.2732
     12 C         141.2079  142.0693  170.9948 C.2     1  UNL1        0.2428
     13 C         140.6459  141.4703  169.7397 C.3     1  UNL1        0.1781
     14 N         141.5027  141.3575  168.5136 N.pl3   1  UNL1       -0.2834
     15 C         142.9214  141.8437  168.5427 C.3     1  UNL1        0.1138
     16 C         143.4834  142.4426  169.7979 C.3     1  UNL1        0.1109
     17 N         142.6266  142.5554  171.0239 N.am    1  UNL1       -0.3013
     18 H         142.9955  142.9485  171.8477 H       1  UNL1        0.1495
     19 N         137.9806  141.3980  164.6935 N.pl3   1  UNL1       -0.3168
     20 H         137.3223  140.8288  164.2333 H       1  UNL1        0.1482
     21 C         137.7846  142.8844  164.7398 C.3     1  UNL1        0.0895
     22 C         138.6778  143.7840  163.9379 C.3     1  UNL1        0.0353
     23 C         140.0082  144.2045  164.4886 C.3     1  UNL1        0.0045
     24 C         140.9013  145.1041  163.6868 C.3     1  UNL1        0.0172
     25 C         140.4642  145.5832  162.3343 C.3     1  UNL1        0.0686
     26 N         139.1337  145.1627  161.7835 N.3     1  UNL1       -0.2974
     27 C         138.2406  144.2631  162.5854 C.3     1  UNL1        0.0702
     28 H         139.3180  144.6846  160.9015 H       1  UNL1        0.1232
@<TRIPOS>BOND
     1    11    12    2
     2    12    13    1
     3    13    14    1
     4    14     1    1
     5     1     2   ar
     6     2     3   ar
     7     3     4   ar
     8     4     5   ar
     9     5     6   ar
    10     6     7   ar
    11     7     8   ar
    12     8     9   ar
    13     9    19    1
    14    19    21    1
    15    22    21    1
    16    22    23    1
    17    23    24    1
    18    24    25    1
    19    25    26    1
    20    26    27    1
    21     9    10   ar
    22    14    15    1
    23    15    16    1
    24    16    17    1
    25    17    12   am
    26    10     1   ar
    27     8     3   ar
    28    27    22    1
    29    19    20    1
    30    26    28    1
    31    17    18    1
@<TRIPOS>MOLECULE
*****
 28 31 0 0 0
SMALL
GASTEIGER

@<TRIPOS>ATOM
      1 C         140.3003  142.0191  167.0672 C.ar    1  UNL1        0.1351
      2 C         140.1731  143.2446  166.2116 C.ar    1  UNL1        0.0550
      3 C         139.3633  143.1977  164.9499 C.ar    1  UNL1        0.1045
      4 N         139.2361  144.4232  164.0943 N.ar    1  UNL1       -0.2405
      5 C         138.4263  144.3763  162.8326 C.ar    1  UNL1        0.1195
      6 C         137.7437  143.1039  162.4264 C.ar    1  UNL1        0.1196
      7 N         137.8708  141.8784  163.2820 N.ar    1  UNL1       -0.2379
      8 C         138.6806  141.9253  164.5437 C.ar    1  UNL1        0.1302
      9 C         138.8078  140.6998  165.3993 C.ar    1  UNL1        0.1491
     10 N         139.6177  140.7467  166.6610 N.ar    1  UNL1       -0.2146
     11 O         140.5442  142.1220  172.2566 O.2     1  UNL1       -0.2732
     12 C         141.2321  142.1174  170.9236 C.2     1  UNL1        0.2428
     13 C         140.4223  142.0706  169.6619 C.3     1  UNL1        0.1781
     14 N         141.1101  142.0660  168.3289 N.pl3   1  UNL1       -0.2834
     15 C         142.6078  142.1083  168.2577 C.3     1  UNL1        0.1138
     16 C         143.4177  142.1552  169.5194 C.3     1  UNL1        0.1109
     17 N         142.7298  142.1597  170.8523 N.am    1  UNL1       -0.3013
     18 H         143.2613  142.1905  171.6804 H       1  UNL1        0.1495
     19 N         138.1252  139.4274  164.9931 N.pl3   1  UNL1       -0.3168
     20 H         137.1451  139.4013  164.9042 H       1  UNL1        0.1482
     21 C         138.9359  138.1947  164.7223 C.3     1  UNL1        0.0895
     22 C         139.7850  138.1115  163.4886 C.3     1  UNL1        0.0353
     23 C         139.3804  138.8518  162.2483 C.3     1  UNL1        0.0045
     24 C         140.2295  138.7685  161.0146 C.3     1  UNL1        0.0172
     25 C         141.4832  137.9450  161.0211 C.3     1  UNL1        0.0686
     26 N         141.8878  137.2047  162.2614 N.3     1  UNL1       -0.2974
     27 C         141.0387  137.2879  163.4952 C.3     1  UNL1        0.0702
     28 H         142.8145  137.5448  162.5182 H       1  UNL1        0.1232
@<TRIPOS>BOND
     1    11    12    2
     2    12    13    1
     3    13    14    1
     4    14     1    1
     5     1     2   ar
     6     2     3   ar
     7     3     4   ar
     8     4     5   ar
     9     5     6   ar
    10     6     7   ar
    11     7     8   ar
    12     8     9   ar
    13     9    19    1
    14    19    21    1
    15    22    21    1
    16    22    23    1
    17    23    24    1
    18    24    25    1
    19    25    26    1
    20    26    27    1
    21     9    10   ar
    22    14    15    1
    23    15    16    1
    24    16    17    1
    25    17    12   am
    26    10     1   ar
    27     8     3   ar
    28    27    22    1
    29    19    20    1
    30    26    28    1
    31    17    18    1
@<TRIPOS>MOLECULE
*****
 28 31 0 0 0
SMALL
GASTEIGER

@<TRIPOS>ATOM
      1 C         140.4295  142.1781  166.8971 C.ar    1  UNL1        0.1351
      2 C         139.9962  140.8859  166.2709 C.ar    1  UNL1        0.0550
      3 C         139.2382  140.8967  164.9764 C.ar    1  UNL1        0.1045
      4 N         138.8049  139.6045  164.3502 N.ar    1  UNL1       -0.2405
      5 C         138.0470  139.6154  163.0558 C.ar    1  UNL1        0.1195
      6 C         137.7224  140.9186  162.3877 C.ar    1  UNL1        0.1196
      7 N         138.1557  142.2108  163.0140 N.ar    1  UNL1       -0.2379
      8 C         138.9136  142.1999  164.3083 C.ar    1  UNL1        0.1302
      9 C         139.3470  143.4922  164.9347 C.ar    1  UNL1        0.1491
     10 N         140.1049  143.4813  166.2290 N.ar    1  UNL1       -0.2146
     11 O         140.4617  142.1851  172.0932 O.2     1  UNL1       -0.2732
     12 C         141.2036  142.1708  170.7895 C.2     1  UNL1        0.2428
     13 C         140.4456  142.1816  169.4952 C.3     1  UNL1        0.1781
     14 N         141.1874  142.1673  168.1916 N.pl3   1  UNL1       -0.2834
     15 C         142.6872  142.1421  168.1823 C.3     1  UNL1        0.1138
     16 C         143.4451  142.1312  169.4766 C.3     1  UNL1        0.1109
     17 N         142.7033  142.1456  170.7802 N.am    1  UNL1       -0.3013
     18 H         143.2008  142.1384  171.6298 H       1  UNL1        0.1495
     19 N         139.0224  144.7954  164.2666 N.pl3   1  UNL1       -0.3168
     20 H         138.3336  145.3862  164.6484 H       1  UNL1        0.1482
     21 C         139.7473  145.1985  163.0167 C.3     1  UNL1        0.0895
     22 C         141.2127  144.9118  162.8741 C.3     1  UNL1        0.0353
     23 C         142.1750  145.3846  163.9231 C.3     1  UNL1        0.0045
     24 C         143.6404  145.0979  163.7804 C.3     1  UNL1        0.0172
     25 C         144.1435  144.3385  162.5887 C.3     1  UNL1        0.0686
     26 N         143.1812  143.8657  161.5397 N.3     1  UNL1       -0.2974
     27 C         141.7158  144.1524  161.6823 C.3     1  UNL1        0.0702
     28 H         143.2791  142.8518  161.4858 H       1  UNL1        0.1232
@<TRIPOS>BOND
     1    11    12    2
     2    12    13    1
     3    13    14    1
     4    14     1    1
     5     1     2   ar
     6     2     3   ar
     7     3     4   ar
     8     4     5   ar
     9     5     6   ar
    10     6     7   ar
    11     7     8   ar
    12     8     9   ar
    13     9    19    1
    14    19    21    1
    15    22    21    1
    16    22    23    1
    17    23    24    1
    18    24    25    1
    19    25    26    1
    20    26    27    1
    21     9    10   ar
    22    14    15    1
    23    15    16    1
    24    16    17    1
    25    17    12   am
    26    10     1   ar
    27     8     3   ar
    28    27    22    1
    29    19    20    1
    30    26    28    1
    31    17    18    1
@<TRIPOS>MOLECULE
*****
 28 31 0 0 0
SMALL
GASTEIGER

@<TRIPOS>ATOM
      1 C         140.9633  142.5077  166.5600 C.ar    1  UNL1        0.1351
      2 C         142.3282  142.0715  166.1165 C.ar    1  UNL1        0.0550
      3 C         142.9260  142.6376  164.8625 C.ar    1  UNL1        0.1045
      4 N         144.2909  142.2015  164.4191 N.ar    1  UNL1       -0.2405
      5 C         144.8885  142.7676  163.1652 C.ar    1  UNL1        0.1195
      6 C         144.1213  143.7698  162.3547 C.ar    1  UNL1        0.1196
      7 N         142.7563  144.2060  162.7982 N.ar    1  UNL1       -0.2379
      8 C         142.1587  143.6399  164.0521 C.ar    1  UNL1        0.1302
      9 C         140.7937  144.0760  164.4957 C.ar    1  UNL1        0.1491
     10 N         140.1961  143.5100  165.7496 N.ar    1  UNL1       -0.2146
     11 O         139.6913  143.0268  171.5713 O.2     1  UNL1       -0.2732
     12 C         139.7296  142.2011  170.3195 C.2     1  UNL1        0.2428
     13 C         140.3273  142.7672  169.0656 C.3     1  UNL1        0.1781
     14 N         140.3656  141.9416  167.8139 N.pl3   1  UNL1       -0.2834
     15 C         139.8062  140.5498  167.8161 C.3     1  UNL1        0.1138
     16 C         139.2085  139.9837  169.0700 C.3     1  UNL1        0.1109
     17 N         139.1702  140.8094  170.3217 N.am    1  UNL1       -0.3013
     18 H         138.7779  140.4378  171.1446 H       1  UNL1        0.1495
     19 N         140.0264  145.0783  163.6852 N.pl3   1  UNL1       -0.3168
     20 H         140.4434  145.9358  163.4399 H       1  UNL1        0.1482
     21 C         138.6240  144.7742  163.2487 C.3     1  UNL1        0.0895
     22 C         138.2840  143.4162  162.7099 C.3     1  UNL1        0.0353
     23 C         138.8871  142.9491  161.4184 C.3     1  UNL1        0.0045
     24 C         138.5472  141.5911  160.8797 C.3     1  UNL1        0.0172
     25 C         137.6041  140.7002  161.6325 C.3     1  UNL1        0.0686
     26 N         137.0009  141.1672  162.9241 N.3     1  UNL1       -0.2974
     27 C         137.3409  142.5252  163.4628 C.3     1  UNL1        0.0702
     28 H         137.2728  140.4908  163.6376 H       1  UNL1        0.1232
@<TRIPOS>BOND
     1    11    12    2
     2    12    13    1
     3    13    14    1
     4    14     1    1
     5     1     2   ar
     6     2     3   ar
     7     3     4   ar
     8     4     5   ar
     9     5     6   ar
    10     6     7   ar
    11     7     8   ar
    12     8     9   ar
    13     9    19    1
    14    19    21    1
    15    22    21    1
    16    22    23    1
    17    23    24    1
    18    24    25    1
    19    25    26    1
    20    26    27    1
    21     9    10   ar
    22    14    15    1
    23    15    16    1
    24    16    17    1
    25    17    12   am
    26    10     1   ar
    27     8     3   ar
    28    27    22    1
    29    19    20    1
    30    26    28    1
    31    17    18    1
@<TRIPOS>MOLECULE
*****
 28 31 0 0 0
SMALL
GASTEIGER

@<TRIPOS>ATOM
      1 C         142.0174  140.3517  167.2307 C.ar    1  UNL1        0.1351
      2 C         140.7189  139.7273  166.8138 C.ar    1  UNL1        0.0550
      3 C         140.6079  139.0452  165.4824 C.ar    1  UNL1        0.1045
      4 N         139.3093  138.4208  165.0655 N.ar    1  UNL1       -0.2405
      5 C         139.1984  137.7389  163.7341 C.ar    1  UNL1        0.1195
      6 C         140.3860  137.6813  162.8197 C.ar    1  UNL1        0.1196
      7 N         141.6846  138.3057  163.2365 N.ar    1  UNL1       -0.2379
      8 C         141.7955  138.9877  164.5679 C.ar    1  UNL1        0.1302
      9 C         143.0941  139.6122  164.9849 C.ar    1  UNL1        0.1491
     10 N         143.2050  140.2941  166.3162 N.ar    1  UNL1       -0.2146
     11 O         140.4586  140.8818  172.1591 O.2     1  UNL1       -0.2732
     12 C         141.3490  141.2987  171.0262 C.2     1  UNL1        0.2428
     13 C         141.2380  140.6167  169.6949 C.3     1  UNL1        0.1781
     14 N         142.1284  141.0337  168.5621 N.pl3   1  UNL1       -0.2834
     15 C         143.1299  142.1326  168.7607 C.3     1  UNL1        0.1138
     16 C         143.2409  142.8146  170.0920 C.3     1  UNL1        0.1109
     17 N         142.3505  142.3977  171.2248 N.am    1  UNL1       -0.3013
     18 H         142.4233  142.8453  172.0986 H       1  UNL1        0.1495
     19 N         144.2817  139.5546  164.0704 N.pl3   1  UNL1       -0.3168
     20 H         144.4129  138.7760  163.4824 H       1  UNL1        0.1482
     21 C         145.2693  140.6834  164.0518 C.3     1  UNL1        0.0895
     22 C         144.8128  142.0741  163.7237 C.3     1  UNL1        0.0353
     23 C         144.5075  143.0431  164.8272 C.3     1  UNL1        0.0045
     24 C         144.0510  144.4338  164.4991 C.3     1  UNL1        0.0172
     25 C         143.8998  144.8554  163.0676 C.3     1  UNL1        0.0686
     26 N         144.2051  143.8863  161.9640 N.3     1  UNL1       -0.2974
     27 C         144.6616  142.4957  162.2921 C.3     1  UNL1        0.0702
     28 H         144.9376  144.3100  161.3944 H       1  UNL1        0.1232
@<TRIPOS>BOND
     1    11    12    2
     2    12    13    1
     3    13    14    1
     4    14     1    1
     5     1     2   ar
     6     2     3   ar
     7     3     4   ar
     8     4     5   ar
     9     5     6   ar
    10     6     7   ar
    11     7     8   ar
    12     8     9   ar
    13     9    19    1
    14    19    21    1
    15    22    21    1
    16    22    23    1
    17    23    24    1
    18    24    25    1
    19    25    26    1
    20    26    27    1
    21     9    10   ar
    22    14    15    1
    23    15    16    1
    24    16    17    1
    25    17    12   am
    26    10     1   ar
    27     8     3   ar
    28    27    22    1
    29    19    20    1
    30    26    28    1
    31    17    18    1
@<TRIPOS>MOLECULE
*****
 28 31 0 0 0
SMALL
GASTEIGER

@<TRIPOS>ATOM
      1 C         141.8575  140.8970  167.4080 C.ar    1  UNL1        0.1351
      2 C         142.9538  141.6037  166.6672 C.ar    1  UNL1        0.0550
      3 C         143.4363  141.0682  165.3517 C.ar    1  UNL1        0.1045
      4 N         144.5326  141.7748  164.6110 N.ar    1  UNL1       -0.2405
      5 C         145.0151  141.2393  163.2955 C.ar    1  UNL1        0.1195
      6 C         144.4012  139.9971  162.7209 C.ar    1  UNL1        0.1196
      7 N         143.3050  139.2905  163.4616 N.ar    1  UNL1       -0.2379
      8 C         142.8225  139.8260  164.7771 C.ar    1  UNL1        0.1302
      9 C         141.7262  139.1193  165.5179 C.ar    1  UNL1        0.1491
     10 N         141.2437  139.6549  166.8333 N.ar    1  UNL1       -0.2146
     11 O         139.9839  144.8189  170.2556 O.2     1  UNL1       -0.2732
     12 C         140.4382  143.3934  170.1473 C.2     1  UNL1        0.2428
     13 C         140.9207  142.8580  168.8318 C.3     1  UNL1        0.1781
     14 N         141.3750  141.4326  168.7235 N.pl3   1  UNL1       -0.2834
     15 C         141.3469  140.5426  169.9306 C.3     1  UNL1        0.1138
     16 C         140.8644  141.0781  171.2461 C.3     1  UNL1        0.1109
     17 N         140.4101  142.5035  171.3544 N.am    1  UNL1       -0.3013
     18 H         140.0934  142.8549  172.2178 H       1  UNL1        0.1495
     19 N         141.1123  137.8772  164.9432 N.pl3   1  UNL1       -0.3168
     20 H         141.6865  137.1258  164.6692 H       1  UNL1        0.1482
     21 C         139.6238  137.7798  164.7861 C.3     1  UNL1        0.0895
     22 C         138.8596  138.9110  164.1645 C.3     1  UNL1        0.0353
     23 C         138.7338  139.0007  162.6725 C.3     1  UNL1        0.0045
     24 C         137.9696  140.1319  162.0509 C.3     1  UNL1        0.0172
     25 C         137.3312  141.1734  162.9213 C.3     1  UNL1        0.0686
     26 N         137.4571  141.0838  164.4134 N.3     1  UNL1       -0.2974
     27 C         138.2213  139.9526  165.0350 C.3     1  UNL1        0.0702
     28 H         136.5089  141.0388  164.7867 H       1  UNL1        0.1232
@<TRIPOS>BOND
     1    11    12    2
     2    12    13    1
     3    13    14    1
     4    14     1    1
     5     1     2   ar
     6     2     3   ar
     7     3     4   ar
     8     4     5   ar
     9     5     6   ar
    10     6     7   ar
    11     7     8   ar
    12     8     9   ar
    13     9    19    1
    14    19    21    1
    15    22    21    1
    16    22    23    1
    17    23    24    1
    18    24    25    1
    19    25    26    1
    20    26    27    1
    21     9    10   ar
    22    14    15    1
    23    15    16    1
    24    16    17    1
    25    17    12   am
    26    10     1   ar
    27     8     3   ar
    28    27    22    1
    29    19    20    1
    30    26    28    1
    31    17    18    1
@<TRIPOS>MOLECULE
*****
 28 31 0 0 0
SMALL
GASTEIGER

@<TRIPOS>ATOM
      1 C         141.1413  141.0054  167.0897 C.ar    1  UNL1        0.1351
      2 C         142.5499  141.0629  166.5771 C.ar    1  UNL1        0.0550
      3 C         142.8642  140.5805  165.1920 C.ar    1  UNL1        0.1045
      4 N         144.2727  140.6380  164.6794 N.ar    1  UNL1       -0.2405
      5 C         144.5870  140.1556  163.2943 C.ar    1  UNL1        0.1195
      6 C         143.4928  139.6158  162.4218 C.ar    1  UNL1        0.1196
      7 N         142.0843  139.5584  162.9343 N.ar    1  UNL1       -0.2379
      8 C         141.7700  140.0407  164.3194 C.ar    1  UNL1        0.1302
      9 C         140.3614  139.9833  164.8320 C.ar    1  UNL1        0.1491
     10 N         140.0471  140.4657  166.2171 N.ar    1  UNL1       -0.2146
     11 O         140.0253  144.8881  170.3577 O.2     1  UNL1       -0.2732
     12 C         140.2690  143.4291  170.1088 C.2     1  UNL1        0.2428
     13 C         140.5833  142.9468  168.7237 C.3     1  UNL1        0.1781
     14 N         140.8270  141.4878  168.4748 N.pl3   1  UNL1       -0.2834
     15 C         140.7563  140.5111  169.6111 C.3     1  UNL1        0.1138
     16 C         140.4419  140.9934  170.9962 C.3     1  UNL1        0.1109
     17 N         140.1983  142.4524  171.2450 N.am    1  UNL1       -0.3013
     18 H         139.9920  142.7689  172.1541 H       1  UNL1        0.1495
     19 N         139.2672  139.4435  163.9595 N.pl3   1  UNL1       -0.3168
     20 H         139.4124  138.6193  163.4410 H       1  UNL1        0.1482
     21 C         137.9518  140.1595  163.8768 C.3     1  UNL1        0.0895
     22 C         137.9128  141.6199  163.5366 C.3     1  UNL1        0.0353
     23 C         137.8925  142.6449  164.6315 C.3     1  UNL1        0.0045
     24 C         137.8535  144.1052  164.2912 C.3     1  UNL1        0.0172
     25 C         137.8349  144.5406  162.8560 C.3     1  UNL1        0.0686
     26 N         137.8552  143.5157  161.7609 N.3     1  UNL1       -0.2974
     27 C         137.8942  142.0553  162.1012 C.3     1  UNL1        0.0702
     28 H         138.6805  143.7078  161.1930 H       1  UNL1        0.1232
@<TRIPOS>BOND
     1    11    12    2
     2    12    13    1
     3    13    14    1
     4    14     1    1
     5     1     2   ar
     6     2     3   ar
     7     3     4   ar
     8     4     5   ar
     9     5     6   ar
    10     6     7   ar
    11     7     8   ar
    12     8     9   ar
    13     9    19    1
    14    19    21    1
    15    22    21    1
    16    22    23    1
    17    23    24    1
    18    24    25    1
    19    25    26    1
    20    26    27    1
    21     9    10   ar
    22    14    15    1
    23    15    16    1
    24    16    17    1
    25    17    12   am
    26    10     1   ar
    27     8     3   ar
    28    27    22    1
    29    19    20    1
    30    26    28    1
    31    17    18    1
@<TRIPOS>MOLECULE
*****
 28 31 0 0 0
SMALL
GASTEIGER

@<TRIPOS>ATOM
      1 C         141.7601  142.1234  167.1122 C.ar    1  UNL1        0.1351
      2 C         143.0338  142.4060  166.3721 C.ar    1  UNL1        0.0550
      3 C         142.9867  143.0333  165.0104 C.ar    1  UNL1        0.1045
      4 N         144.2605  143.3159  164.2704 N.ar    1  UNL1       -0.2405
      5 C         144.2133  143.9432  162.9087 C.ar    1  UNL1        0.1195
      6 C         142.8925  144.2880  162.2871 C.ar    1  UNL1        0.1196
      7 N         141.6187  144.0055  163.0271 N.ar    1  UNL1       -0.2379
      8 C         141.6659  143.3781  164.3888 C.ar    1  UNL1        0.1302
      9 C         140.3921  143.0956  165.1289 C.ar    1  UNL1        0.1491
     10 N         140.4392  142.4682  166.4906 N.ar    1  UNL1       -0.2146
     11 O         140.4875  142.2020  172.1495 O.2     1  UNL1       -0.2732
     12 C         141.1709  141.5354  170.9925 C.2     1  UNL1        0.2428
     13 C         141.1238  142.1627  169.6309 C.3     1  UNL1        0.1781
     14 N         141.8071  141.4961  168.4739 N.pl3   1  UNL1       -0.2834
     15 C         142.5376  140.2020  168.6786 C.3     1  UNL1        0.1138
     16 C         142.5847  139.5747  170.0403 C.3     1  UNL1        0.1109
     17 N         141.9013  140.2413  171.1972 N.am    1  UNL1       -0.3013
     18 H         141.9322  139.8296  172.0910 H       1  UNL1        0.1495
     19 N         139.0712  143.4404  164.5073 N.pl3   1  UNL1       -0.3168
     20 H         138.9536  144.3033  164.0481 H       1  UNL1        0.1482
     21 C         137.9296  142.4705  164.5852 C.3     1  UNL1        0.0895
     22 C         137.9814  141.1873  163.8103 C.3     1  UNL1        0.0353
     23 C         138.5565  139.9534  164.4403 C.3     1  UNL1        0.0045
     24 C         138.6083  138.6701  163.6654 C.3     1  UNL1        0.0172
     25 C         138.0851  138.6207  162.2605 C.3     1  UNL1        0.0686
     26 N         137.5099  139.8545  161.6305 N.3     1  UNL1       -0.2974
     27 C         137.4581  141.1378  162.4054 C.3     1  UNL1        0.0702
     28 H         136.5503  139.6307  161.3670 H       1  UNL1        0.1232
@<TRIPOS>BOND
     1    11    12    2
     2    12    13    1
     3    13    14    1
     4    14     1    1
     5     1     2   ar
     6     2     3   ar
     7     3     4   ar
     8     4     5   ar
     9     5     6   ar
    10     6     7   ar
    11     7     8   ar
    12     8     9   ar
    13     9    19    1
    14    19    21    1
    15    22    21    1
    16    22    23    1
    17    23    24    1
    18    24    25    1
    19    25    26    1
    20    26    27    1
    21     9    10   ar
    22    14    15    1
    23    15    16    1
    24    16    17    1
    25    17    12   am
    26    10     1   ar
    27     8     3   ar
    28    27    22    1
    29    19    20    1
    30    26    28    1
    31    17    18    1
@<TRIPOS>MOLECULE
*****
 28 31 0 0 0
SMALL
GASTEIGER

@<TRIPOS>ATOM
      1 C         140.5061  142.4809  165.4020 C.ar    1  UNL1        0.1351
      2 C         141.1215  142.6891  166.7540 C.ar    1  UNL1        0.0550
      3 C         140.7452  141.7916  167.8956 C.ar    1  UNL1        0.1045
      4 N         141.3605  141.9998  169.2476 N.ar    1  UNL1       -0.2405
      5 C         140.9842  141.1024  170.3890 C.ar    1  UNL1        0.1195
      6 C         139.9925  139.9968  170.1785 C.ar    1  UNL1        0.1196
      7 N         139.3771  139.7887  168.8265 N.ar    1  UNL1       -0.2379
      8 C         139.7535  140.6861  167.6850 C.ar    1  UNL1        0.1302
      9 C         139.1381  140.4780  166.3329 C.ar    1  UNL1        0.1491
     10 N         139.5144  141.3754  165.1915 N.ar    1  UNL1       -0.2146
     11 O         144.1418  144.9362  162.6175 O.2     1  UNL1       -0.2732
     12 C         142.7002  144.6059  162.8682 C.2     1  UNL1        0.2428
     13 C         142.3240  143.7086  164.0097 C.3     1  UNL1        0.1781
     14 N         140.8825  143.3783  164.2604 N.pl3   1  UNL1       -0.2834
     15 C         139.8172  143.9454  163.3696 C.3     1  UNL1        0.1138
     16 C         140.1934  144.8428  162.2281 C.3     1  UNL1        0.1109
     17 N         141.6350  145.1731  161.9774 N.am    1  UNL1       -0.3013
     18 H         141.8819  145.7621  161.2282 H       1  UNL1        0.1495
     19 N         138.1464  139.3724  166.1224 N.pl3   1  UNL1       -0.3168
     20 H         137.1875  139.5358  166.2743 H       1  UNL1        0.1482
     21 C         138.6157  138.0181  165.6804 C.3     1  UNL1        0.0895
     22 C         139.4948  137.8863  164.4722 C.3     1  UNL1        0.0353
     23 C         140.9869  137.9019  164.6251 C.3     1  UNL1        0.0045
     24 C         141.8660  137.7701  163.4169 C.3     1  UNL1        0.0172
     25 C         141.2530  137.6227  162.0558 C.3     1  UNL1        0.0686
     26 N         139.7609  137.6071  161.9029 N.3     1  UNL1       -0.2974
     27 C         138.8817  137.7389  163.1111 C.3     1  UNL1        0.0702
     28 H         139.5197  136.7213  161.4584 H       1  UNL1        0.1232
@<TRIPOS>BOND
     1    11    12    2
     2    12    13    1
     3    13    14    1
     4    14     1    1
     5     1     2   ar
     6     2     3   ar
     7     3     4   ar
     8     4     5   ar
     9     5     6   ar
    10     6     7   ar
    11     7     8   ar
    12     8     9   ar
    13     9    19    1
    14    19    21    1
    15    22    21    1
    16    22    23    1
    17    23    24    1
    18    24    25    1
    19    25    26    1
    20    26    27    1
    21     9    10   ar
    22    14    15    1
    23    15    16    1
    24    16    17    1
    25    17    12   am
    26    10     1   ar
    27     8     3   ar
    28    27    22    1
    29    19    20    1
    30    26    28    1
    31    17    18    1
