@<TRIPOS>MOLECULE
*****
 25 26 0 0 0
SMALL
GASTEIGER

@<TRIPOS>ATOM
      1 N         137.6477  142.8326  163.4001 N.pl3   1  UNL1       -0.3180
      2 H         136.8201  142.9177  163.9264 H       1  UNL1        0.1482
      3 C         137.9703  141.5384  162.7137 C.ar    1  UNL1        0.1317
      4 N         138.0147  141.4747  161.2157 N.ar    1  UNL1       -0.2092
      5 C         138.3372  140.1805  160.5294 C.ar    1  UNL1        0.2000
      6 N         138.6153  138.9501  161.3409 N.ar    1  UNL1       -0.2239
      7 C         138.5709  139.0139  162.8389 C.ar    1  UNL1        0.0858
      8 C         138.8490  137.7834  163.6505 C.ar    1  UNL1        0.0201
      9 C         138.8046  137.8471  165.1485 C.ar    1  UNL1        0.0129
     10 C         138.4820  139.1413  165.8349 C.ar    1  UNL1        0.0579
     11 CL        138.4376  139.2050  167.3329 Cl      1  UNL1       -0.0822
     12 C         138.2040  140.3717  165.0233 C.ar    1  UNL1        0.0157
     13 C         138.2484  140.3080  163.5253 C.ar    1  UNL1        0.0499
     14 C         138.5862  143.9970  163.2846 C.3     1  UNL1        0.0882
     15 C         139.2071  144.5849  164.5170 C.3     1  UNL1        0.0212
     16 C         139.3046  143.7672  165.7708 C.3     1  UNL1        0.0018
     17 C         140.5017  142.8943  166.0057 C.3     1  UNL1        0.0006
     18 C         140.9180  142.5532  167.4058 C.3     1  UNL1        0.0096
     19 C         140.2839  143.2563  168.5692 C.3     1  UNL1        0.0871
     20 O         139.3231  142.0579  170.6646 O.2     1  UNL1       -0.2730
     21 C         140.4678  142.7226  169.9590 C.2     1  UNL1        0.2443
     22 N         141.7963  142.8535  170.6430 N.am    1  UNL1       -0.1970
     23 O         141.9802  142.3198  172.0326 O.3     1  UNL1       -0.2952
     24 H         142.5475  143.2898  170.1798 H       1  UNL1        0.1822
     25 H         141.1493  141.9247  172.3399 H       1  UNL1        0.2414
@<TRIPOS>BOND
     1    20    21    2
     2    21    19    1
     3    19    18    1
     4    18    17    1
     5    17    16    1
     6    16    15    1
     7    15    14    1
     8    14     1    1
     9     1     3    1
    10     3     4   ar
    11     4     5   ar
    12     5     6   ar
    13     6     7   ar
    14     7     8   ar
    15     8     9   ar
    16     9    10   ar
    17    10    11    1
    18    10    12   ar
    19    12    13   ar
    20    21    22   am
    21    22    23    1
    22    13     3   ar
    23    13     7   ar
    24     1     2    1
    25    22    24    1
    26    23    25    1
@<TRIPOS>MOLECULE
*****
 25 26 0 0 0
SMALL
GASTEIGER

@<TRIPOS>ATOM
      1 N         142.8048  142.0243  165.7333 N.pl3   1  UNL1       -0.3180
      2 H         142.9521  142.4303  166.6180 H       1  UNL1        0.1482
      3 C         142.9595  142.8530  164.4926 C.ar    1  UNL1        0.1317
      4 N         144.2679  142.8680  163.7591 N.ar    1  UNL1       -0.2092
      5 C         144.4226  143.6967  162.5184 C.ar    1  UNL1        0.2000
      6 N         143.2691  144.5103  162.0112 N.ar    1  UNL1       -0.2239
      7 C         141.9608  144.4953  162.7447 C.ar    1  UNL1        0.0858
      8 C         140.8071  145.3089  162.2375 C.ar    1  UNL1        0.0201
      9 C         139.4988  145.2938  162.9710 C.ar    1  UNL1        0.0129
     10 C         139.3440  144.4651  164.2117 C.ar    1  UNL1        0.0579
     11 CL        138.0356  144.4501  164.9452 Cl      1  UNL1       -0.0822
     12 C         140.4976  143.6515  164.7189 C.ar    1  UNL1        0.0157
     13 C         141.8060  143.6666  163.9854 C.ar    1  UNL1        0.0499
     14 C         142.4256  140.5770  165.6260 C.3     1  UNL1        0.0882
     15 C         142.7107  139.6407  166.7628 C.3     1  UNL1        0.0212
     16 C         142.6869  140.1463  168.1748 C.3     1  UNL1        0.0018
     17 C         141.5430  139.7935  169.0786 C.3     1  UNL1        0.0006
     18 C         140.1747  140.3445  168.8065 C.3     1  UNL1        0.0096
     19 C         139.4086  141.0249  169.9021 C.3     1  UNL1        0.0871
     20 O         140.4030  142.2623  171.9588 O.2     1  UNL1       -0.2730
     21 C         139.9484  142.2759  170.5295 C.2     1  UNL1        0.2443
     22 N         140.0336  143.5406  169.7274 N.am    1  UNL1       -0.1970
     23 O         140.5734  144.7916  170.3547 O.3     1  UNL1       -0.2952
     24 H         139.7352  143.5496  168.7892 H       1  UNL1        0.1822
     25 H         140.8198  144.6113  171.2754 H       1  UNL1        0.2414
@<TRIPOS>BOND
     1    20    21    2
     2    21    19    1
     3    19    18    1
     4    18    17    1
     5    17    16    1
     6    16    15    1
     7    15    14    1
     8    14     1    1
     9     1     3    1
    10     3     4   ar
    11     4     5   ar
    12     5     6   ar
    13     6     7   ar
    14     7     8   ar
    15     8     9   ar
    16     9    10   ar
    17    10    11    1
    18    10    12   ar
    19    12    13   ar
    20    21    22   am
    21    22    23    1
    22    13     3   ar
    23    13     7   ar
    24     1     2    1
    25    22    24    1
    26    23    25    1
@<TRIPOS>MOLECULE
*****
 25 26 0 0 0
SMALL
GASTEIGER

@<TRIPOS>ATOM
      1 N         141.1362  139.8503  166.1171 N.pl3   1  UNL1       -0.3180
      2 H         140.8610  139.8428  167.0623 H       1  UNL1        0.1482
      3 C         140.1103  139.6810  165.0359 C.ar    1  UNL1        0.1317
      4 N         139.9166  138.3417  164.3889 N.ar    1  UNL1       -0.2092
      5 C         138.8908  138.1724  163.3078 C.ar    1  UNL1        0.2000
      6 N         138.0586  139.3424  162.8736 N.ar    1  UNL1       -0.2239
      7 C         138.2523  140.6817  163.5206 C.ar    1  UNL1        0.0858
      8 C         137.4201  141.8518  163.0865 C.ar    1  UNL1        0.0201
      9 C         137.6138  143.1911  163.7335 C.ar    1  UNL1        0.0129
     10 C         138.6397  143.3604  164.8146 C.ar    1  UNL1        0.0579
     11 CL        138.8334  144.6999  165.4616 Cl      1  UNL1       -0.0822
     12 C         139.4719  142.1904  165.2488 C.ar    1  UNL1        0.0157
     13 C         139.2782  140.8510  164.6018 C.ar    1  UNL1        0.0499
     14 C         142.5813  140.0311  165.7581 C.3     1  UNL1        0.0882
     15 C         143.1364  141.4094  165.5528 C.3     1  UNL1        0.0212
     16 C         142.8681  142.4844  166.5641 C.3     1  UNL1        0.0018
     17 C         143.3103  142.3035  167.9860 C.3     1  UNL1        0.0006
     18 C         142.3515  142.5677  169.1089 C.3     1  UNL1        0.0096
     19 C         142.4947  141.8294  170.4067 C.3     1  UNL1        0.0871
     20 O         140.4853  142.0827  172.0341 O.2     1  UNL1       -0.2730
     21 C         141.2846  141.2491  171.0769 C.2     1  UNL1        0.2443
     22 N         140.8739  139.8353  170.7899 N.am    1  UNL1       -0.1970
     23 O         139.6639  139.2551  171.4601 O.3     1  UNL1       -0.2952
     24 H         141.3985  139.2882  170.1617 H       1  UNL1        0.1822
     25 H         139.2663  139.9211  172.0425 H       1  UNL1        0.2414
@<TRIPOS>BOND
     1    20    21    2
     2    21    19    1
     3    19    18    1
     4    18    17    1
     5    17    16    1
     6    16    15    1
     7    15    14    1
     8    14     1    1
     9     1     3    1
    10     3     4   ar
    11     4     5   ar
    12     5     6   ar
    13     6     7   ar
    14     7     8   ar
    15     8     9   ar
    16     9    10   ar
    17    10    11    1
    18    10    12   ar
    19    12    13   ar
    20    21    22   am
    21    22    23    1
    22    13     3   ar
    23    13     7   ar
    24     1     2    1
    25    22    24    1
    26    23    25    1
@<TRIPOS>MOLECULE
*****
 25 26 0 0 0
SMALL
GASTEIGER

@<TRIPOS>ATOM
      1 N         143.0704  145.1480  162.5951 N.pl3   1  UNL1       -0.3180
      2 H         143.1247  146.1283  162.6676 H       1  UNL1        0.1482
      3 C         141.9813  144.5155  161.7804 C.ar    1  UNL1        0.1317
      4 N         142.2608  144.0612  160.3785 N.ar    1  UNL1       -0.2092
      5 C         141.1717  143.4287  159.5638 C.ar    1  UNL1        0.2000
      6 N         139.8031  143.2503  160.1510 N.ar    1  UNL1       -0.2239
      7 C         139.5235  143.7046  161.5529 C.ar    1  UNL1        0.0858
      8 C         138.1548  143.5263  162.1402 C.ar    1  UNL1        0.0201
      9 C         137.8752  143.9805  163.5422 C.ar    1  UNL1        0.0129
     10 C         138.9643  144.6130  164.3569 C.ar    1  UNL1        0.0579
     11 CL        138.6847  145.0673  165.7589 Cl      1  UNL1       -0.0822
     12 C         140.3330  144.7914  163.7696 C.ar    1  UNL1        0.0157
     13 C         140.6126  144.3371  162.3676 C.ar    1  UNL1        0.0499
     14 C         144.0767  144.2870  163.2992 C.3     1  UNL1        0.0882
     15 C         143.9192  143.9922  164.7615 C.3     1  UNL1        0.0212
     16 C         143.4314  142.6454  165.2068 C.3     1  UNL1        0.0018
     17 C         142.1819  142.5345  166.0293 C.3     1  UNL1        0.0006
     18 C         142.2003  141.7753  167.3228 C.3     1  UNL1        0.0096
     19 C         142.8963  142.3507  168.5204 C.3     1  UNL1        0.0871
     20 O         142.7548  143.3616  170.9096 O.2     1  UNL1       -0.2730
     21 C         142.0985  143.0062  169.6085 C.2     1  UNL1        0.2443
     22 N         140.6443  143.3063  169.3954 N.am    1  UNL1       -0.1970
     23 O         139.8465  143.9618  170.4834 O.3     1  UNL1       -0.2952
     24 H         140.2136  143.0730  168.5414 H       1  UNL1        0.1822
     25 H         140.4174  144.1226  171.2509 H       1  UNL1        0.2414
@<TRIPOS>BOND
     1    20    21    2
     2    21    19    1
     3    19    18    1
     4    18    17    1
     5    17    16    1
     6    16    15    1
     7    15    14    1
     8    14     1    1
     9     1     3    1
    10     3     4   ar
    11     4     5   ar
    12     5     6   ar
    13     6     7   ar
    14     7     8   ar
    15     8     9   ar
    16     9    10   ar
    17    10    11    1
    18    10    12   ar
    19    12    13   ar
    20    21    22   am
    21    22    23    1
    22    13     3   ar
    23    13     7   ar
    24     1     2    1
    25    22    24    1
    26    23    25    1
@<TRIPOS>MOLECULE
*****
 25 26 0 0 0
SMALL
GASTEIGER

@<TRIPOS>ATOM
      1 N         141.3264  141.4823  164.4590 N.pl3   1  UNL1       -0.3180
      2 H         142.1062  141.8599  164.9266 H       1  UNL1        0.1482
      3 C         140.3458  140.6273  165.2055 C.ar    1  UNL1        0.1317
      4 N         139.5374  139.5984  164.4722 N.ar    1  UNL1       -0.2092
      5 C         138.5567  138.7434  165.2188 C.ar    1  UNL1        0.2000
      6 N         138.3845  138.9174  166.6987 N.ar    1  UNL1       -0.2239
      7 C         139.1929  139.9463  167.4319 C.ar    1  UNL1        0.0858
      8 C         139.0206  140.1203  168.9119 C.ar    1  UNL1        0.0201
      9 C         139.8290  141.1493  169.6452 C.ar    1  UNL1        0.0129
     10 C         140.8097  142.0042  168.8986 C.ar    1  UNL1        0.0579
     11 CL        141.6181  143.0332  169.6320 Cl      1  UNL1       -0.0822
     12 C         140.9819  141.8302  167.4187 C.ar    1  UNL1        0.0157
     13 C         140.1735  140.8013  166.6854 C.ar    1  UNL1        0.0499
     14 C         141.1191  141.7618  162.9999 C.3     1  UNL1        0.0882
     15 C         141.1757  143.1717  162.4910 C.3     1  UNL1        0.0212
     16 C         141.4547  144.3006  163.4387 C.3     1  UNL1        0.0018
     17 C         140.3178  145.0379  164.0821 C.3     1  UNL1        0.0006
     18 C         139.2820  144.2850  164.8631 C.3     1  UNL1        0.0096
     19 C         137.8991  144.1165  164.3070 C.3     1  UNL1        0.0871
     20 O         137.7782  143.4585  161.7965 O.2     1  UNL1       -0.2730
     21 C         137.6379  143.0909  163.2440 C.2     1  UNL1        0.2443
     22 N         137.2366  141.6977  163.6285 N.am    1  UNL1       -0.1970
     23 O         136.9755  140.6721  162.5656 O.3     1  UNL1       -0.2952
     24 H         137.1445  141.4564  164.5785 H       1  UNL1        0.1822
     25 H         137.1098  141.0708  161.6916 H       1  UNL1        0.2414
@<TRIPOS>BOND
     1    20    21    2
     2    21    19    1
     3    19    18    1
     4    18    17    1
     5    17    16    1
     6    16    15    1
     7    15    14    1
     8    14     1    1
     9     1     3    1
    10     3     4   ar
    11     4     5   ar
    12     5     6   ar
    13     6     7   ar
    14     7     8   ar
    15     8     9   ar
    16     9    10   ar
    17    10    11    1
    18    10    12   ar
    19    12    13   ar
    20    21    22   am
    21    22    23    1
    22    13     3   ar
    23    13     7   ar
    24     1     2    1
    25    22    24    1
    26    23    25    1
@<TRIPOS>MOLECULE
*****
 25 26 0 0 0
SMALL
GASTEIGER

@<TRIPOS>ATOM
      1 N         137.8340  139.6973  164.7801 N.pl3   1  UNL1       -0.3180
      2 H         137.0177  139.8403  165.3116 H       1  UNL1        0.1482
      3 C         137.9852  140.3621  163.4441 C.ar    1  UNL1        0.1317
      4 N         137.9176  139.5453  162.1879 N.ar    1  UNL1       -0.2092
      5 C         138.0688  140.2102  160.8518 C.ar    1  UNL1        0.2000
      6 N         138.2877  141.6919  160.7720 N.ar    1  UNL1       -0.2239
      7 C         138.3553  142.5088  162.0282 C.ar    1  UNL1        0.0858
      8 C         138.5741  143.9907  161.9484 C.ar    1  UNL1        0.0201
      9 C         138.6417  144.8075  163.2046 C.ar    1  UNL1        0.0129
     10 C         138.4905  144.1426  164.5406 C.ar    1  UNL1        0.0579
     11 CL        138.5581  144.9596  165.7969 Cl      1  UNL1       -0.0822
     12 C         138.2717  142.6609  164.6205 C.ar    1  UNL1        0.0157
     13 C         138.2041  141.8439  163.3642 C.ar    1  UNL1        0.0499
     14 C         138.9265  138.8144  165.3065 C.3     1  UNL1        0.0882
     15 C         140.1420  139.4226  165.9409 C.3     1  UNL1        0.0212
     16 C         139.9976  140.3031  167.1467 C.3     1  UNL1        0.0018
     17 C         141.1784  141.0738  167.6583 C.3     1  UNL1        0.0006
     18 C         140.9681  142.3314  168.4482 C.3     1  UNL1        0.0096
     19 C         139.9475  142.3651  169.5470 C.3     1  UNL1        0.0871
     20 O         140.7023  141.8698  171.9833 O.2     1  UNL1       -0.2730
     21 C         140.0606  141.4181  170.7049 C.2     1  UNL1        0.2443
     22 N         139.5320  140.0196  170.5843 N.am    1  UNL1       -0.1970
     23 O         139.6450  139.0726  171.7420 O.3     1  UNL1       -0.2952
     24 H         139.1108  139.7232  169.7452 H       1  UNL1        0.1822
     25 H         140.0813  139.5197  172.4841 H       1  UNL1        0.2414
@<TRIPOS>BOND
     1    20    21    2
     2    21    19    1
     3    19    18    1
     4    18    17    1
     5    17    16    1
     6    16    15    1
     7    15    14    1
     8    14     1    1
     9     1     3    1
    10     3     4   ar
    11     4     5   ar
    12     5     6   ar
    13     6     7   ar
    14     7     8   ar
    15     8     9   ar
    16     9    10   ar
    17    10    11    1
    18    10    12   ar
    19    12    13   ar
    20    21    22   am
    21    22    23    1
    22    13     3   ar
    23    13     7   ar
    24     1     2    1
    25    22    24    1
    26    23    25    1
@<TRIPOS>MOLECULE
*****
 25 26 0 0 0
SMALL
GASTEIGER

@<TRIPOS>ATOM
      1 N         143.8952  139.4048  164.8925 N.pl3   1  UNL1       -0.3180
      2 H         144.2289  138.8581  165.6401 H       1  UNL1        0.1482
      3 C         143.0438  138.7794  163.8276 C.ar    1  UNL1        0.1317
      4 N         143.6589  138.3614  162.5249 N.ar    1  UNL1       -0.2092
      5 C         142.8075  137.7360  161.4600 C.ar    1  UNL1        0.2000
      6 N         141.3411  137.5287  161.6977 N.ar    1  UNL1       -0.2239
      7 C         140.7260  137.9467  163.0003 C.ar    1  UNL1        0.0858
      8 C         139.2595  137.7394  163.2381 C.ar    1  UNL1        0.0201
      9 C         138.6445  138.1575  164.5407 C.ar    1  UNL1        0.0129
     10 C         139.4958  138.7828  165.6056 C.ar    1  UNL1        0.0579
     11 CL        138.8807  139.2009  166.9083 Cl      1  UNL1       -0.0822
     12 C         140.9623  138.9902  165.3679 C.ar    1  UNL1        0.0157
     13 C         141.5774  138.5721  164.0653 C.ar    1  UNL1        0.0499
     14 C         144.2381  140.8632  164.8184 C.3     1  UNL1        0.0882
     15 C         143.2675  141.8885  165.3250 C.3     1  UNL1        0.0212
     16 C         142.8822  141.9048  166.7746 C.3     1  UNL1        0.0018
     17 C         141.4893  142.2902  167.1761 C.3     1  UNL1        0.0006
     18 C         141.0569  142.1567  168.6061 C.3     1  UNL1        0.0096
     19 C         141.0738  140.8129  169.2725 C.3     1  UNL1        0.0871
     20 O         141.5889  141.2065  171.7884 O.2     1  UNL1       -0.2730
     21 C         141.9444  140.5815  170.4720 C.2     1  UNL1        0.2443
     22 N         143.1703  139.7251  170.3550 N.am    1  UNL1       -0.1970
     23 O         144.0408  139.4938  171.5544 O.3     1  UNL1       -0.2952
     24 H         143.4036  139.3149  169.4910 H       1  UNL1        0.1822
     25 H         143.6718  139.9653  172.3176 H       1  UNL1        0.2414
@<TRIPOS>BOND
     1    20    21    2
     2    21    19    1
     3    19    18    1
     4    18    17    1
     5    17    16    1
     6    16    15    1
     7    15    14    1
     8    14     1    1
     9     1     3    1
    10     3     4   ar
    11     4     5   ar
    12     5     6   ar
    13     6     7   ar
    14     7     8   ar
    15     8     9   ar
    16     9    10   ar
    17    10    11    1
    18    10    12   ar
    19    12    13   ar
    20    21    22   am
    21    22    23    1
    22    13     3   ar
    23    13     7   ar
    24     1     2    1
    25    22    24    1
    26    23    25    1
@<TRIPOS>MOLECULE
*****
 25 26 0 0 0
SMALL
GASTEIGER

@<TRIPOS>ATOM
      1 N         139.6307  141.5058  166.1528 N.pl3   1  UNL1       -0.3180
      2 H         139.6925  141.7033  167.1153 H       1  UNL1        0.1482
      3 C         139.4569  142.6234  165.1675 C.ar    1  UNL1        0.1317
      4 N         138.0883  142.9715  164.6620 N.ar    1  UNL1       -0.2092
      5 C         137.9145  144.0891  163.6767 C.ar    1  UNL1        0.2000
      6 N         139.1094  144.8586  163.1970 N.ar    1  UNL1       -0.2239
      7 C         140.4780  144.5105  163.7025 C.ar    1  UNL1        0.0858
      8 C         141.6729  145.2799  163.2227 C.ar    1  UNL1        0.0201
      9 C         143.0416  144.9318  163.7282 C.ar    1  UNL1        0.0129
     10 C         143.2154  143.8142  164.7135 C.ar    1  UNL1        0.0579
     11 CL        144.5841  143.4661  165.2190 Cl      1  UNL1       -0.0822
     12 C         142.0205  143.0448  165.1933 C.ar    1  UNL1        0.0157
     13 C         140.6518  143.3929  164.6878 C.ar    1  UNL1        0.0499
     14 C         139.7104  140.0874  165.6716 C.3     1  UNL1        0.0882
     15 C         141.0469  139.4551  165.4189 C.3     1  UNL1        0.0212
     16 C         142.1723  139.6673  166.3877 C.3     1  UNL1        0.0018
     17 C         141.9144  139.5977  167.8637 C.3     1  UNL1        0.0006
     18 C         142.5678  140.5832  168.7866 C.3     1  UNL1        0.0096
     19 C         142.3512  142.0542  168.5881 C.3     1  UNL1        0.0871
     20 O         141.1412  143.6107  170.2802 O.2     1  UNL1       -0.2730
     21 C         142.4026  142.9851  169.7633 C.2     1  UNL1        0.2443
     22 N         143.7155  143.2902  170.4215 N.am    1  UNL1       -0.1970
     23 O         143.7669  144.2211  171.5965 O.3     1  UNL1       -0.2952
     24 H         144.5434  142.8796  170.0822 H       1  UNL1        0.1822
     25 H         142.8719  144.5345  171.8001 H       1  UNL1        0.2414
@<TRIPOS>BOND
     1    20    21    2
     2    21    19    1
     3    19    18    1
     4    18    17    1
     5    17    16    1
     6    16    15    1
     7    15    14    1
     8    14     1    1
     9     1     3    1
    10     3     4   ar
    11     4     5   ar
    12     5     6   ar
    13     6     7   ar
    14     7     8   ar
    15     8     9   ar
    16     9    10   ar
    17    10    11    1
    18    10    12   ar
    19    12    13   ar
    20    21    22   am
    21    22    23    1
    22    13     3   ar
    23    13     7   ar
    24     1     2    1
    25    22    24    1
    26    23    25    1
@<TRIPOS>MOLECULE
*****
 25 26 0 0 0
SMALL
GASTEIGER

@<TRIPOS>ATOM
      1 N         140.9652  143.0912  165.7103 N.pl3   1  UNL1       -0.3180
      2 H         141.0796  143.2596  166.6735 H       1  UNL1        0.1482
      3 C         142.1450  143.1791  164.7881 C.ar    1  UNL1        0.1317
      4 N         142.3934  144.4343  164.0055 N.ar    1  UNL1       -0.2092
      5 C         143.5732  144.5222  163.0834 C.ar    1  UNL1        0.2000
      6 N         144.5046  143.3548  162.9439 N.ar    1  UNL1       -0.2239
      7 C         144.2563  142.0995  163.7265 C.ar    1  UNL1        0.0858
      8 C         145.1877  140.9320  163.5870 C.ar    1  UNL1        0.0201
      9 C         144.9394  139.6768  164.3696 C.ar    1  UNL1        0.0129
     10 C         143.7596  139.5889  165.2917 C.ar    1  UNL1        0.0579
     11 CL        143.5112  138.3335  166.0744 Cl      1  UNL1       -0.0822
     12 C         142.8281  140.7563  165.4312 C.ar    1  UNL1        0.0157
     13 C         143.0765  142.0117  164.6486 C.ar    1  UNL1        0.0499
     14 C         139.6110  142.7466  165.1649 C.3     1  UNL1        0.0882
     15 C         139.3347  141.3599  164.6642 C.3     1  UNL1        0.0212
     16 C         138.6958  140.3490  165.5698 C.3     1  UNL1        0.0018
     17 C         139.5224  139.6342  166.5973 C.3     1  UNL1        0.0006
     18 C         139.4638  140.0587  168.0347 C.3     1  UNL1        0.0096
     19 C         140.5005  140.9936  168.5835 C.3     1  UNL1        0.0871
     20 O         139.3484  141.7128  170.7984 O.2     1  UNL1       -0.2730
     21 C         140.1039  142.0681  169.5523 C.2     1  UNL1        0.2443
     22 N         140.4629  143.4978  169.2748 N.am    1  UNL1       -0.1970
     23 O         140.0664  144.5722  170.2434 O.3     1  UNL1       -0.2952
     24 H         140.9588  143.7310  168.4569 H       1  UNL1        0.1822
     25 H         139.5886  144.1755  170.9885 H       1  UNL1        0.2414
@<TRIPOS>BOND
     1    20    21    2
     2    21    19    1
     3    19    18    1
     4    18    17    1
     5    17    16    1
     6    16    15    1
     7    15    14    1
     8    14     1    1
     9     1     3    1
    10     3     4   ar
    11     4     5   ar
    12     5     6   ar
    13     6     7   ar
    14     7     8   ar
    15     8     9   ar
    16     9    10   ar
    17    10    11    1
    18    10    12   ar
    19    12    13   ar
    20    21    22   am
    21    22    23    1
    22    13     3   ar
    23    13     7   ar
    24     1     2    1
    25    22    24    1
    26    23    25    1
