@<TRIPOS>MOLECULE
*****
 30 33 0 0 0
SMALL
GASTEIGER

@<TRIPOS>ATOM
      1 N         142.8560  141.5838  167.4773 N.pl3   1  UNL1       -0.3362
      2 H         143.7846  141.3132  167.6611 H       1  UNL1        0.1465
      3 C         141.7986  141.3951  168.5244 C.2     1  UNL1        0.0457
      4 C         141.9534  142.0377  169.8710 C.2     1  UNL1        0.1096
      5 C         140.8960  141.8489  170.9181 C.2     1  UNL1        0.2410
      6 N         139.6839  141.0176  170.6185 N.2     1  UNL1       -0.0338
      7 C         139.5291  140.3751  169.2720 C.2     1  UNL1        0.3606
      8 N         138.4518  139.5075  168.6917 N.2     1  UNL1       -0.0343
      9 C         138.8434  139.1600  167.2861 C.2     1  UNL1        0.2321
     10 C         140.1627  139.8129  166.9976 C.2     1  UNL1        0.0421
     11 C         140.5865  140.5638  168.2250 C.3     1  UNL1        0.1732
     12 C         143.1655  142.8689  170.1704 C.2     1  UNL1        0.2474
     13 N         143.0575  144.0480  171.0915 N.am    1  UNL1       -0.3252
     14 O         144.4857  142.5212  169.5489 O.2     1  UNL1       -0.2702
     15 H         142.1911  144.2762  171.4994 H       1  UNL1        0.1453
     16 H         143.8531  144.5935  171.2880 H       1  UNL1        0.1453
     17 N         141.7838  143.3869  163.4962 N.pl3   1  UNL1       -0.2931
     18 C         141.0119  143.7682  164.7246 C.3     1  UNL1        0.0939
     19 C         141.3693  143.1672  166.0517 C.3     1  UNL1        0.0410
     20 C         142.4986  142.1848  166.1503 C.3     1  UNL1        0.0722
     21 C         143.2705  141.8035  164.9220 C.3     1  UNL1        0.0410
     22 C         142.9130  142.4046  163.5949 C.3     1  UNL1        0.0939
     23 C         140.7114  145.1901  159.5153 C.ar    1  UNL1        0.0877
     24 C         139.9750  145.6114  160.7523 C.ar    1  UNL1        0.0147
     25 C         140.3325  145.0103  162.0792 C.ar    1  UNL1        0.0350
     26 C         141.4264  143.9880  162.1692 C.ar    1  UNL1        0.1317
     27 N         142.1628  143.5666  160.9323 N.ar    1  UNL1       -0.2285
     28 C         141.8053  144.1677  159.6052 C.ar    1  UNL1        0.1105
     29 N         139.9964  146.3923  156.8613 N.1     1  UNL1       -0.1908
     30 C         140.3539  145.7912  158.1883 C.1     1  UNL1        0.1020
@<TRIPOS>BOND
     1    29    30    3
     2    30    23    1
     3    23    24   ar
     4    24    25   ar
     5    25    26   ar
     6    26    17    1
     7    17    18    1
     8    18    19    1
     9    19    20    1
    10    20     1    1
    11     1     3    1
    12     3     4    2
    13     4    12    1
    14    12    13   am
    15    12    14    2
    16     4     5    1
    17     5     6    2
    18     6     7    1
    19     7     8    2
    20     8     9    1
    21     9    10    2
    22    10    11    1
    23    20    21    1
    24    21    22    1
    25    26    27   ar
    26    27    28   ar
    27    28    23   ar
    28    22    17    1
    29    11     3    1
    30    11     7    1
    31     1     2    1
    32    13    15    1
    33    13    16    1
@<TRIPOS>MOLECULE
*****
 30 33 0 0 0
SMALL
GASTEIGER

@<TRIPOS>ATOM
      1 N         141.4979  139.4568  168.6814 N.pl3   1  UNL1       -0.3362
      2 H         141.4743  138.5808  169.1302 H       1  UNL1        0.1465
      3 C         141.1657  140.7020  169.4491 C.2     1  UNL1        0.0457
      4 C         139.7515  140.9666  169.8732 C.2     1  UNL1        0.1096
      5 C         139.4193  142.2119  170.6408 C.2     1  UNL1        0.2410
      6 N         140.5013  143.1923  170.9843 N.2     1  UNL1       -0.0338
      7 C         141.9155  142.9275  170.5602 C.2     1  UNL1        0.3606
      8 N         143.1836  143.7053  170.7531 N.2     1  UNL1       -0.0343
      9 C         144.2994  142.9408  170.1047 C.2     1  UNL1        0.2321
     10 C         143.7211  141.6906  169.5111 C.2     1  UNL1        0.0421
     11 C         142.2477  141.6824  169.7926 C.3     1  UNL1        0.1732
     12 C         138.6695  139.9863  169.5297 C.2     1  UNL1        0.2474
     13 N         137.6450  139.6090  170.5584 N.am    1  UNL1       -0.3252
     14 O         138.6119  139.3831  168.1576 O.2     1  UNL1       -0.2702
     15 H         137.6827  140.0049  171.4590 H       1  UNL1        0.1453
     16 H         136.9348  138.9655  170.3329 H       1  UNL1        0.1453
     17 N         142.6025  139.7252  164.3274 N.pl3   1  UNL1       -0.2931
     18 C         143.4020  138.8555  165.2518 C.3     1  UNL1        0.0939
     19 C         143.0338  138.7660  166.7031 C.3     1  UNL1        0.0410
     20 C         141.8661  139.5463  167.2301 C.3     1  UNL1        0.0722
     21 C         141.0666  140.4159  166.3058 C.3     1  UNL1        0.0410
     22 C         141.4348  140.5054  164.8544 C.3     1  UNL1        0.0939
     23 C         143.7072  139.9934  159.9734 C.ar    1  UNL1        0.0877
     24 C         144.0910  138.7826  160.7713 C.ar    1  UNL1        0.0147
     25 C         143.7228  138.6932  162.2226 C.ar    1  UNL1        0.0350
     26 C         142.9707  139.8146  162.8760 C.ar    1  UNL1        0.1317
     27 N         142.5868  141.0254  162.0781 N.ar    1  UNL1       -0.2285
     28 C         142.9551  141.1148  160.6267 C.ar    1  UNL1        0.1105
     29 N         144.4437  140.1721  157.0707 N.1     1  UNL1       -0.1908
     30 C         144.0754  140.0828  158.5220 C.1     1  UNL1        0.1020
@<TRIPOS>BOND
     1    29    30    3
     2    30    23    1
     3    23    24   ar
     4    24    25   ar
     5    25    26   ar
     6    26    17    1
     7    17    18    1
     8    18    19    1
     9    19    20    1
    10    20     1    1
    11     1     3    1
    12     3     4    2
    13     4    12    1
    14    12    13   am
    15    12    14    2
    16     4     5    1
    17     5     6    2
    18     6     7    1
    19     7     8    2
    20     8     9    1
    21     9    10    2
    22    10    11    1
    23    20    21    1
    24    21    22    1
    25    26    27   ar
    26    27    28   ar
    27    28    23   ar
    28    22    17    1
    29    11     3    1
    30    11     7    1
    31     1     2    1
    32    13    15    1
    33    13    16    1
@<TRIPOS>MOLECULE
*****
 30 33 0 0 0
SMALL
GASTEIGER

@<TRIPOS>ATOM
      1 N         139.2738  140.4253  167.0630 N.pl3   1  UNL1       -0.3362
      2 H         138.3775  140.2175  167.4132 H       1  UNL1        0.1465
      3 C         140.4939  139.9998  167.8251 C.2     1  UNL1        0.0457
      4 C         140.5478  140.1767  169.3136 C.2     1  UNL1        0.1096
      5 C         141.7679  139.7513  170.0757 C.2     1  UNL1        0.2410
      6 N         142.9338  139.1491  169.3491 N.2     1  UNL1       -0.0338
      7 C         142.8798  138.9722  167.8605 C.2     1  UNL1        0.3606
      8 N         143.8673  138.4130  166.8797 N.2     1  UNL1       -0.0343
      9 C         143.2577  138.4928  165.5115 C.2     1  UNL1        0.2321
     10 C         141.8934  139.1013  165.6467 C.2     1  UNL1        0.0421
     11 C         141.6598  139.3976  167.0986 C.3     1  UNL1        0.1732
     12 C         139.3819  140.7789  170.0401 C.2     1  UNL1        0.2474
     13 N         139.4869  142.1624  170.6104 N.am    1  UNL1       -0.3252
     14 O         138.1110  139.9977  170.1965 O.2     1  UNL1       -0.2702
     15 H         140.3210  142.6751  170.5077 H       1  UNL1        0.1453
     16 H         138.7216  142.5576  171.0872 H       1  UNL1        0.1453
     17 N         139.7110  142.6513  163.1767 N.pl3   1  UNL1       -0.2931
     18 C         140.2986  143.2173  164.4355 C.3     1  UNL1        0.0939
     19 C         140.1528  142.4753  165.7310 C.3     1  UNL1        0.0410
     20 C         139.4195  141.1673  165.7676 C.3     1  UNL1        0.0722
     21 C         138.8320  140.6012  164.5089 C.3     1  UNL1        0.0410
     22 C         138.9778  141.3433  163.2134 C.3     1  UNL1        0.0939
     23 C         140.1483  144.8775  159.2905 C.ar    1  UNL1        0.0877
     24 C         140.4646  145.5625  160.5869 C.ar    1  UNL1        0.0147
     25 C         140.3189  144.8204  161.8823 C.ar    1  UNL1        0.0350
     26 C         139.8567  143.3934  161.8812 C.ar    1  UNL1        0.1317
     27 N         139.5404  142.7084  160.5849 N.ar    1  UNL1       -0.2285
     28 C         139.6861  143.4505  159.2894 C.ar    1  UNL1        0.1105
     29 N         140.4398  146.3617  156.6997 N.1     1  UNL1       -0.1908
     30 C         140.2940  145.6196  157.9951 C.1     1  UNL1        0.1020
@<TRIPOS>BOND
     1    29    30    3
     2    30    23    1
     3    23    24   ar
     4    24    25   ar
     5    25    26   ar
     6    26    17    1
     7    17    18    1
     8    18    19    1
     9    19    20    1
    10    20     1    1
    11     1     3    1
    12     3     4    2
    13     4    12    1
    14    12    13   am
    15    12    14    2
    16     4     5    1
    17     5     6    2
    18     6     7    1
    19     7     8    2
    20     8     9    1
    21     9    10    2
    22    10    11    1
    23    20    21    1
    24    21    22    1
    25    26    27   ar
    26    27    28   ar
    27    28    23   ar
    28    22    17    1
    29    11     3    1
    30    11     7    1
    31     1     2    1
    32    13    15    1
    33    13    16    1
@<TRIPOS>MOLECULE
*****
 30 33 0 0 0
SMALL
GASTEIGER

@<TRIPOS>ATOM
      1 N         142.6361  140.6035  166.4072 N.pl3   1  UNL1       -0.3362
      2 H         143.5310  140.2568  166.6268 H       1  UNL1        0.1465
      3 C         141.4959  140.3931  167.3590 C.2     1  UNL1        0.0457
      4 C         141.6358  140.7954  168.7973 C.2     1  UNL1        0.1096
      5 C         140.4956  140.5850  169.7491 C.2     1  UNL1        0.2410
      6 N         139.2157  139.9725  169.2626 N.2     1  UNL1       -0.0338
      7 C         139.0759  139.5704  167.8243 C.2     1  UNL1        0.3606
      8 N         137.9441  138.9482  167.0615 N.2     1  UNL1       -0.0343
      9 C         138.3847  138.7740  165.6383 C.2     1  UNL1        0.2321
     10 C         139.7888  139.2885  165.5215 C.2     1  UNL1        0.0421
     11 C         140.2161  139.7807  166.8726 C.3     1  UNL1        0.1732
     12 C         142.9156  141.4078  169.2838 C.2     1  UNL1        0.2474
     13 N         143.5950  140.8570  170.5025 N.am    1  UNL1       -0.3252
     14 O         143.5162  142.5711  168.5518 O.2     1  UNL1       -0.2702
     15 H         143.2009  140.0934  170.9830 H       1  UNL1        0.1453
     16 H         144.4351  141.2590  170.8218 H       1  UNL1        0.1453
     17 N         141.9660  142.8189  162.5481 N.pl3   1  UNL1       -0.2931
     18 C         142.5783  141.4496  162.5303 C.3     1  UNL1        0.0939
     19 C         142.8017  140.7111  163.8167 C.3     1  UNL1        0.0410
     20 C         142.4127  141.3419  165.1209 C.3     1  UNL1        0.0722
     21 C         141.8005  142.7112  165.1387 C.3     1  UNL1        0.0410
     22 C         141.5771  143.4496  163.8522 C.3     1  UNL1        0.0939
     23 C         141.2961  145.0341  158.6889 C.ar    1  UNL1        0.0877
     24 C         142.2813  143.9043  158.7438 C.ar    1  UNL1        0.0147
     25 C         142.5046  143.1659  160.0303 C.ar    1  UNL1        0.0350
     26 C         141.7427  143.5573  161.2616 C.ar    1  UNL1        0.1317
     27 N         140.7576  144.6871  161.2067 N.ar    1  UNL1       -0.2285
     28 C         140.5342  145.4255  159.9202 C.ar    1  UNL1        0.1105
     29 N         140.8495  146.5108  156.1160 N.1     1  UNL1       -0.1908
     30 C         141.0728  145.7725  157.4024 C.1     1  UNL1        0.1020
@<TRIPOS>BOND
     1    29    30    3
     2    30    23    1
     3    23    24   ar
     4    24    25   ar
     5    25    26   ar
     6    26    17    1
     7    17    18    1
     8    18    19    1
     9    19    20    1
    10    20     1    1
    11     1     3    1
    12     3     4    2
    13     4    12    1
    14    12    13   am
    15    12    14    2
    16     4     5    1
    17     5     6    2
    18     6     7    1
    19     7     8    2
    20     8     9    1
    21     9    10    2
    22    10    11    1
    23    20    21    1
    24    21    22    1
    25    26    27   ar
    26    27    28   ar
    27    28    23   ar
    28    22    17    1
    29    11     3    1
    30    11     7    1
    31     1     2    1
    32    13    15    1
    33    13    16    1
@<TRIPOS>MOLECULE
*****
 30 33 0 0 0
SMALL
GASTEIGER

@<TRIPOS>ATOM
      1 N         138.4322  143.0944  160.3181 N.pl3   1  UNL1       -0.3362
      2 H         137.5261  143.3724  160.0518 H       1  UNL1        0.1465
      3 C         139.5080  142.9525  159.2824 C.2     1  UNL1        0.0457
      4 C         140.6458  143.9292  159.2444 C.2     1  UNL1        0.1096
      5 C         141.7216  143.7874  158.2086 C.2     1  UNL1        0.2410
      6 N         141.6595  142.6689  157.2110 N.2     1  UNL1       -0.0338
      7 C         140.5216  141.6923  157.2491 C.2     1  UNL1        0.3606
      8 N         140.1951  140.4980  156.4022 N.2     1  UNL1       -0.0343
      9 C         138.9176  139.9018  156.9145 C.2     1  UNL1        0.2321
     10 C         138.4545  140.7275  158.0780 C.2     1  UNL1        0.0421
     11 C         139.4459  141.8341  158.2848 C.3     1  UNL1        0.1732
     12 C         140.7079  145.0476  160.2419 C.2     1  UNL1        0.2474
     13 N         141.9169  145.2072  161.1155 N.am    1  UNL1       -0.3252
     14 O         139.5612  146.0065  160.3659 O.2     1  UNL1       -0.2702
     15 H         142.6696  144.5779  161.0341 H       1  UNL1        0.1453
     16 H         141.9576  145.9413  161.7702 H       1  UNL1        0.1453
     17 N         139.3466  142.2490  164.6423 N.pl3   1  UNL1       -0.2931
     18 C         138.2430  143.1985  164.2808 C.3     1  UNL1        0.0939
     19 C         137.9382  143.4803  162.8394 C.3     1  UNL1        0.0410
     20 C         138.7370  142.8126  161.7595 C.3     1  UNL1        0.0722
     21 C         139.8406  141.8631  162.1210 C.3     1  UNL1        0.0410
     22 C         140.1453  141.5813  163.5625 C.3     1  UNL1        0.0939
     23 C         140.2609  141.4037  168.9666 C.ar    1  UNL1        0.0877
     24 C         140.5400  142.7612  168.3925 C.ar    1  UNL1        0.0147
     25 C         140.2352  143.0429  166.9510 C.ar    1  UNL1        0.0350
     26 C         139.6514  141.9672  166.0838 C.ar    1  UNL1        0.1317
     27 N         139.3724  140.6098  166.6579 N.ar    1  UNL1       -0.2285
     28 C         139.6772  140.3281  168.0994 C.ar    1  UNL1        0.1105
     29 N         140.8705  140.8403  171.8495 N.1     1  UNL1       -0.1908
     30 C         140.5657  141.1220  170.4080 C.1     1  UNL1        0.1020
@<TRIPOS>BOND
     1    29    30    3
     2    30    23    1
     3    23    24   ar
     4    24    25   ar
     5    25    26   ar
     6    26    17    1
     7    17    18    1
     8    18    19    1
     9    19    20    1
    10    20     1    1
    11     1     3    1
    12     3     4    2
    13     4    12    1
    14    12    13   am
    15    12    14    2
    16     4     5    1
    17     5     6    2
    18     6     7    1
    19     7     8    2
    20     8     9    1
    21     9    10    2
    22    10    11    1
    23    20    21    1
    24    21    22    1
    25    26    27   ar
    26    27    28   ar
    27    28    23   ar
    28    22    17    1
    29    11     3    1
    30    11     7    1
    31     1     2    1
    32    13    15    1
    33    13    16    1
@<TRIPOS>MOLECULE
*****
 30 33 0 0 0
SMALL
GASTEIGER

@<TRIPOS>ATOM
      1 N         138.6390  139.4875  160.5326 N.pl3   1  UNL1       -0.3362
      2 H         137.7553  139.1578  160.2504 H       1  UNL1        0.1465
      3 C         139.7338  139.6584  159.5214 C.2     1  UNL1        0.0457
      4 C         139.4952  140.4805  158.2897 C.2     1  UNL1        0.1096
      5 C         140.5900  140.6514  157.2784 C.2     1  UNL1        0.2410
      6 N         141.9231  140.0001  157.4991 N.2     1  UNL1       -0.0338
      7 C         142.1615  139.1780  158.7308 C.2     1  UNL1        0.3606
      8 N         143.3627  138.4218  159.2158 N.2     1  UNL1       -0.0343
      9 C         143.0104  137.7836  160.5268 C.2     1  UNL1        0.2321
     10 C         141.5915  138.1453  160.8520 C.2     1  UNL1        0.0421
     11 C         141.0668  139.0072  159.7420 C.3     1  UNL1        0.1732
     12 C         138.1622  141.1318  158.0691 C.2     1  UNL1        0.2474
     13 N         138.0525  142.6277  158.0476 N.am    1  UNL1       -0.3252
     14 O         136.9386  140.2872  157.8699 O.2     1  UNL1       -0.2702
     15 H         138.8556  143.1820  158.1783 H       1  UNL1        0.1453
     16 H         137.1776  143.0551  157.9028 H       1  UNL1        0.1453
     17 N         139.3941  140.4821  164.8559 N.pl3   1  UNL1       -0.2931
     18 C         138.7625  139.1725  164.4867 C.3     1  UNL1        0.0939
     19 C         138.5108  138.8409  163.0457 C.3     1  UNL1        0.0410
     20 C         138.8907  139.8191  161.9737 C.3     1  UNL1        0.0722
     21 C         139.5222  141.1286  162.3428 C.3     1  UNL1        0.0410
     22 C         139.7739  141.4601  163.7839 C.3     1  UNL1        0.0939
     23 C         140.1491  141.4764  169.1792 C.ar    1  UNL1        0.0877
     24 C         139.5181  140.1666  168.8100 C.ar    1  UNL1        0.0147
     25 C         139.2665  139.8352  167.3689 C.ar    1  UNL1        0.0350
     26 C         139.6458  140.8136  166.2970 C.ar    1  UNL1        0.1317
     27 N         140.2768  142.1233  166.6662 N.ar    1  UNL1       -0.2285
     28 C         140.5284  142.4548  168.1073 C.ar    1  UNL1        0.1105
     29 N         140.6524  142.1392  172.0614 N.1     1  UNL1       -0.1908
     30 C         140.4008  141.8078  170.6203 C.1     1  UNL1        0.1020
@<TRIPOS>BOND
     1    29    30    3
     2    30    23    1
     3    23    24   ar
     4    24    25   ar
     5    25    26   ar
     6    26    17    1
     7    17    18    1
     8    18    19    1
     9    19    20    1
    10    20     1    1
    11     1     3    1
    12     3     4    2
    13     4    12    1
    14    12    13   am
    15    12    14    2
    16     4     5    1
    17     5     6    2
    18     6     7    1
    19     7     8    2
    20     8     9    1
    21     9    10    2
    22    10    11    1
    23    20    21    1
    24    21    22    1
    25    26    27   ar
    26    27    28   ar
    27    28    23   ar
    28    22    17    1
    29    11     3    1
    30    11     7    1
    31     1     2    1
    32    13    15    1
    33    13    16    1
@<TRIPOS>MOLECULE
*****
 30 33 0 0 0
SMALL
GASTEIGER

@<TRIPOS>ATOM
      1 N         140.9633  139.5248  166.4525 N.pl3   1  UNL1       -0.3362
      2 H         141.3374  138.6186  166.3629 H       1  UNL1        0.1465
      3 C         140.5007  140.0162  167.7922 C.2     1  UNL1        0.0457
      4 C         139.0799  139.7986  168.2211 C.2     1  UNL1        0.1096
      5 C         138.6174  140.2900  169.5608 C.2     1  UNL1        0.2410
      6 N         139.5756  140.9989  170.4715 N.2     1  UNL1       -0.0338
      7 C         140.9964  141.2164  170.0425 C.2     1  UNL1        0.3606
      8 N         142.1598  141.8769  170.7209 N.2     1  UNL1       -0.0343
      9 C         143.3413  141.7938  169.8006 C.2     1  UNL1        0.2321
     10 C         142.9082  141.0819  168.5533 C.2     1  UNL1        0.0421
     11 C         141.4589  140.7251  168.7028 C.3     1  UNL1        0.1732
     12 C         138.1217  139.0898  167.3105 C.2     1  UNL1        0.2474
     13 N         137.2788  137.9661  167.8368 N.am    1  UNL1       -0.3252
     14 O         138.0064  139.5045  165.8736 O.2     1  UNL1       -0.2702
     15 H         137.3545  137.6939  168.7798 H       1  UNL1        0.1453
     16 H         136.6499  137.5009  167.2390 H       1  UNL1        0.1453
     17 N         140.6410  142.1931  162.8433 N.pl3   1  UNL1       -0.2931
     18 C         140.8806  140.7224  162.6698 C.3     1  UNL1        0.0939
     19 C         140.9880  139.8330  163.8729 C.3     1  UNL1        0.0410
     20 C         140.8559  140.4143  165.2494 C.3     1  UNL1        0.0722
     21 C         140.6163  141.8848  165.4229 C.3     1  UNL1        0.0410
     22 C         140.5089  142.7742  164.2197 C.3     1  UNL1        0.0939
     23 C         140.3188  144.8612  159.2340 C.ar    1  UNL1        0.0877
     24 C         140.4892  145.4619  160.5979 C.ar    1  UNL1        0.0147
     25 C         140.5966  144.5725  161.8010 C.ar    1  UNL1        0.0350
     26 C         140.5336  143.0825  161.6401 C.ar    1  UNL1        0.1317
     27 N         140.3632  142.4818  160.2763 N.ar    1  UNL1       -0.2285
     28 C         140.2557  143.3712  159.0731 C.ar    1  UNL1        0.1105
     29 N         140.1039  146.6400  156.8278 N.1     1  UNL1       -0.1908
     30 C         140.2114  145.7506  158.0309 C.1     1  UNL1        0.1020
@<TRIPOS>BOND
     1    29    30    3
     2    30    23    1
     3    23    24   ar
     4    24    25   ar
     5    25    26   ar
     6    26    17    1
     7    17    18    1
     8    18    19    1
     9    19    20    1
    10    20     1    1
    11     1     3    1
    12     3     4    2
    13     4    12    1
    14    12    13   am
    15    12    14    2
    16     4     5    1
    17     5     6    2
    18     6     7    1
    19     7     8    2
    20     8     9    1
    21     9    10    2
    22    10    11    1
    23    20    21    1
    24    21    22    1
    25    26    27   ar
    26    27    28   ar
    27    28    23   ar
    28    22    17    1
    29    11     3    1
    30    11     7    1
    31     1     2    1
    32    13    15    1
    33    13    16    1
@<TRIPOS>MOLECULE
*****
 30 33 0 0 0
SMALL
GASTEIGER

@<TRIPOS>ATOM
      1 N         144.2251  142.2527  160.7629 N.pl3   1  UNL1       -0.3362
      2 H         144.9646  142.8437  160.4927 H       1  UNL1        0.1465
      3 C         143.5664  141.3642  159.7495 C.2     1  UNL1        0.0457
      4 C         142.9293  141.9614  158.5299 C.2     1  UNL1        0.1096
      5 C         142.2706  141.0730  157.5165 C.2     1  UNL1        0.2410
      6 N         142.2491  139.5874  157.7229 N.2     1  UNL1       -0.0338
      7 C         142.8861  138.9902  158.9425 C.2     1  UNL1        0.3606
      8 N         143.0206  137.5720  159.4123 N.2     1  UNL1       -0.0343
      9 C         143.7623  137.5840  160.7160 C.2     1  UNL1        0.2321
     10 C         144.0863  139.0095  161.0519 C.2     1  UNL1        0.0421
     11 C         143.5448  139.8787  159.9558 C.3     1  UNL1        0.1732
     12 C         142.9509  143.4469  158.3236 C.2     1  UNL1        0.2474
     13 N         143.3408  144.0135  156.9905 N.am    1  UNL1       -0.3252
     14 O         142.5826  144.3661  159.4504 O.2     1  UNL1       -0.2702
     15 H         143.5825  143.4103  156.2510 H       1  UNL1        0.1453
     16 H         143.3550  144.9886  156.8552 H       1  UNL1        0.1453
     17 N         142.8209  142.2163  165.0381 N.pl3   1  UNL1       -0.2931
     18 C         144.2811  142.0704  164.7269 C.3     1  UNL1        0.0939
     19 C         144.7491  142.0825  163.3019 C.3     1  UNL1        0.0410
     20 C         143.7570  142.2405  162.1880 C.3     1  UNL1        0.0722
     21 C         142.2969  142.3864  162.4991 C.3     1  UNL1        0.0410
     22 C         141.8289  142.3743  163.9242 C.3     1  UNL1        0.0939
     23 C         141.4169  142.1799  169.3132 C.ar    1  UNL1        0.0877
     24 C         140.4304  141.9960  168.1983 C.ar    1  UNL1        0.0147
     25 C         140.8984  142.0082  166.7732 C.ar    1  UNL1        0.0350
     26 C         142.3529  142.2041  166.4632 C.ar    1  UNL1        0.1317
     27 N         143.3393  142.3880  167.5781 N.ar    1  UNL1       -0.2285
     28 C         142.8713  142.3758  169.0032 C.ar    1  UNL1        0.1105
     29 N         140.4807  142.1556  172.1633 N.1     1  UNL1       -0.1908
     30 C         140.9488  142.1677  170.7383 C.1     1  UNL1        0.1020
@<TRIPOS>BOND
     1    29    30    3
     2    30    23    1
     3    23    24   ar
     4    24    25   ar
     5    25    26   ar
     6    26    17    1
     7    17    18    1
     8    18    19    1
     9    19    20    1
    10    20     1    1
    11     1     3    1
    12     3     4    2
    13     4    12    1
    14    12    13   am
    15    12    14    2
    16     4     5    1
    17     5     6    2
    18     6     7    1
    19     7     8    2
    20     8     9    1
    21     9    10    2
    22    10    11    1
    23    20    21    1
    24    21    22    1
    25    26    27   ar
    26    27    28   ar
    27    28    23   ar
    28    22    17    1
    29    11     3    1
    30    11     7    1
    31     1     2    1
    32    13    15    1
    33    13    16    1
@<TRIPOS>MOLECULE
*****
 30 33 0 0 0
SMALL
GASTEIGER

@<TRIPOS>ATOM
      1 N         143.9707  142.7616  160.1184 N.pl3   1  UNL1       -0.3362
      2 H         144.9140  142.9118  159.8797 H       1  UNL1        0.1465
      3 C         142.9417  142.5934  159.0399 C.2     1  UNL1        0.0457
      4 C         143.0071  141.4114  158.1188 C.2     1  UNL1        0.1096
      5 C         141.9781  141.2432  157.0404 C.2     1  UNL1        0.2410
      6 N         140.8838  142.2570  156.8832 N.2     1  UNL1       -0.0338
      7 C         140.8185  143.4390  157.8043 C.2     1  UNL1        0.3606
      8 N         139.8638  144.5927  157.8906 N.2     1  UNL1       -0.0343
      9 C         140.3027  145.4740  159.0223 C.2     1  UNL1        0.2321
     10 C         141.5287  144.8649  159.6355 C.2     1  UNL1        0.0421
     11 C         141.8475  143.6072  158.8827 C.3     1  UNL1        0.1732
     12 C         144.1014  140.3976  158.2760 C.2     1  UNL1        0.2474
     13 N         145.1564  140.2625  157.2182 N.am    1  UNL1       -0.3252
     14 O         144.1408  139.5189  159.4910 O.2     1  UNL1       -0.2702
     15 H         145.1305  140.8393  156.4208 H       1  UNL1        0.1453
     16 H         145.8746  139.5971  157.3215 H       1  UNL1        0.1453
     17 N         142.7462  142.5801  164.4447 N.pl3   1  UNL1       -0.2931
     18 C         143.7522  143.5966  163.9920 C.3     1  UNL1        0.0939
     19 C         144.1604  143.6571  162.5499 C.3     1  UNL1        0.0410
     20 C         143.5626  142.7011  161.5605 C.3     1  UNL1        0.0722
     21 C         142.5566  141.6847  162.0132 C.3     1  UNL1        0.0410
     22 C         142.1485  141.6243  163.4554 C.3     1  UNL1        0.0939
     23 C         141.5218  142.3988  168.7711 C.ar    1  UNL1        0.0877
     24 C         140.4866  142.6139  167.7071 C.ar    1  UNL1        0.0147
     25 C         140.8948  142.6744  166.2650 C.ar    1  UNL1        0.0350
     26 C         142.3381  142.5197  165.8869 C.ar    1  UNL1        0.1317
     27 N         143.3732  142.3045  166.9509 N.ar    1  UNL1       -0.2285
     28 C         142.9651  142.2441  168.3931 C.ar    1  UNL1        0.1105
     29 N         140.7054  142.2779  171.6554 N.1     1  UNL1       -0.1908
     30 C         141.1136  142.3383  170.2132 C.1     1  UNL1        0.1020
@<TRIPOS>BOND
     1    29    30    3
     2    30    23    1
     3    23    24   ar
     4    24    25   ar
     5    25    26   ar
     6    26    17    1
     7    17    18    1
     8    18    19    1
     9    19    20    1
    10    20     1    1
    11     1     3    1
    12     3     4    2
    13     4    12    1
    14    12    13   am
    15    12    14    2
    16     4     5    1
    17     5     6    2
    18     6     7    1
    19     7     8    2
    20     8     9    1
    21     9    10    2
    22    10    11    1
    23    20    21    1
    24    21    22    1
    25    26    27   ar
    26    27    28   ar
    27    28    23   ar
    28    22    17    1
    29    11     3    1
    30    11     7    1
    31     1     2    1
    32    13    15    1
    33    13    16    1
