@<TRIPOS>MOLECULE
*****
 44 48 0 0 0
SMALL
GASTEIGER

@<TRIPOS>ATOM
      1 C         143.1901  142.8337  165.8472 C.ar    1  UNL1        0.2006
      2 N         142.0518  141.9306  165.4753 N.ar    1  UNL1       -0.2000
      3 C         141.4548  141.0145  166.5022 C.ar    1  UNL1        0.1379
      4 C         141.9962  141.0017  167.9010 C.ar    1  UNL1        0.0673
      5 C         141.6140  140.2125  169.1180 C.ar    1  UNL1        0.0265
      6 C         142.5161  140.6280  170.2420 C.ar    1  UNL1        0.1007
      7 N         143.4560  141.6739  169.7197 N.ar    1  UNL1       -0.2268
      8 C         143.1346  141.9049  168.2729 C.ar    1  UNL1        0.1452
      9 N         143.7316  142.8209  167.2460 N.ar    1  UNL1       -0.3118
     10 H         144.4787  143.4137  167.4901 H       1  UNL1        0.1700
     11 N         143.7871  143.7498  164.8203 N.pl3   1  UNL1       -0.2816
     12 H         144.6231  144.2313  165.0167 H       1  UNL1        0.1551
     13 C         140.0733  145.9509  161.9283 C.3     1  UNL1        0.0307
     14 C         141.2534  145.0328  162.0481 C.ar    1  UNL1       -0.0244
     15 C         141.9302  144.8504  163.3742 C.ar    1  UNL1        0.0132
     16 C         143.1104  143.9322  163.4941 C.ar    1  UNL1        0.0845
     17 C         143.6137  143.1965  162.2878 C.ar    1  UNL1        0.1513
     18 C         142.9370  143.3789  160.9615 C.ar    1  UNL1        0.0336
     19 C         141.7569  144.2970  160.8417 C.ar    1  UNL1       -0.0233
     20 C         141.0802  144.4794  159.5155 C.3     1  UNL1        0.0249
     21 C         140.0220  143.5121  159.0741 C.3     1  UNL1        0.0217
     22 C         139.3453  143.6945  157.7480 C.3     1  UNL1        0.0725
     23 N         139.7267  144.8442  156.8632 N.3     1  UNL1       -0.2715
     24 C         139.0499  145.0267  155.5370 C.3     1  UNL1        0.0896
     25 C         140.7848  145.8114  157.3046 C.3     1  UNL1        0.0725
     26 C         141.4615  145.6290  158.6308 C.3     1  UNL1        0.0217
     27 O         144.7939  142.2784  162.4076 O.3     1  UNL1       -0.4779
     28 C         144.5973  140.8577  162.8467 C.3     1  UNL1        0.1662
     29 C         143.7321  139.9360  162.0393 C.3     1  UNL1        0.0472
     30 C         145.2659  140.3586  164.0932 C.3     1  UNL1        0.0472
     31 N         140.3163  140.1113  166.1302 N.pl3   1  UNL1       -0.2968
     32 H         139.5138  140.0711  166.6990 H       1  UNL1        0.1536
     33 C         140.4007  139.2695  164.8917 C.ar    1  UNL1        0.0667
     34 C         141.0509  137.9188  164.9457 C.ar    1  UNL1        0.0159
     35 C         141.1352  137.0770  163.7070 C.ar    1  UNL1        0.0014
     36 C         140.5694  137.5859  162.4144 C.ar    1  UNL1        0.0014
     37 C         139.9192  138.9366  162.3604 C.ar    1  UNL1        0.0196
     38 C         139.8349  139.7784  163.5990 C.ar    1  UNL1        0.1189
     39 S         139.1847  141.1291  163.5450 S.O2    1  UNL1        0.0082
     40 O         140.2882  141.6248  162.6581 O.2     1  UNL1       -0.1686
     41 O         138.0813  140.6334  164.4319 O.2     1  UNL1       -0.1686
     42 C         138.5346  142.4798  163.4910 C.3     1  UNL1        0.1340
     43 C         137.8787  142.9464  162.2254 C.3     1  UNL1        0.0257
     44 C         138.5403  143.3638  164.7029 C.3     1  UNL1        0.0257
@<TRIPOS>BOND
     1    13    14    1
     2    14    15   ar
     3    15    16   ar
     4    16    11    1
     5    11     1    1
     6     1     2   ar
     7     2     3   ar
     8     3    31    1
     9    31    33    1
    10    33    34   ar
    11    34    35   ar
    12    35    36   ar
    13    36    37   ar
    14    37    38   ar
    15    38    39    1
    16    39    40    2
    17    39    41    2
    18    39    42    1
    19    42    43    1
    20    42    44    1
    21     3     4   ar
    22     4     5   ar
    23     5     6   ar
    24     6     7   ar
    25     7     8   ar
    26     8     9   ar
    27    16    17   ar
    28    17    27    1
    29    27    28    1
    30    28    29    1
    31    28    30    1
    32    17    18   ar
    33    18    19   ar
    34    19    20    1
    35    20    21    1
    36    21    22    1
    37    22    23    1
    38    23    24    1
    39    23    25    1
    40    25    26    1
    41    19    14   ar
    42    26    20    1
    43     9     1   ar
    44    38    33   ar
    45     8     4    1
    46    11    12    1
    47    31    32    1
    48     9    10    1
@<TRIPOS>MOLECULE
*****
 44 48 0 0 0
SMALL
GASTEIGER

@<TRIPOS>ATOM
      1 C         139.1977  140.0076  166.3023 C.ar    1  UNL1        0.2006
      2 N         140.5836  140.1233  165.7406 N.ar    1  UNL1       -0.2000
      3 C         141.7680  140.1303  166.6612 C.ar    1  UNL1        0.1379
      4 C         141.5661  140.0216  168.1436 C.ar    1  UNL1        0.0673
      5 C         142.5339  140.0015  169.2894 C.ar    1  UNL1        0.0265
      6 C         141.7460  139.8734  170.5594 C.ar    1  UNL1        0.1007
      7 N         140.2912  139.8143  170.1984 N.ar    1  UNL1       -0.2268
      8 C         140.1801  139.9059  168.7053 C.ar    1  UNL1        0.1452
      9 N         138.9959  139.8989  167.7847 N.ar    1  UNL1       -0.3118
     10 H         138.0862  139.8230  168.1533 H       1  UNL1        0.1700
     11 N         138.0134  140.0006  165.3817 N.pl3   1  UNL1       -0.2816
     12 H         137.1106  139.8452  165.7422 H       1  UNL1        0.1551
     13 C         139.0451  138.1547  160.6352 C.3     1  UNL1        0.0307
     14 C         138.7207  139.3075  161.5385 C.ar    1  UNL1       -0.0244
     15 C         138.5293  139.0777  163.0084 C.ar    1  UNL1        0.0132
     16 C         138.2048  140.2304  163.9118 C.ar    1  UNL1        0.0845
     17 C         138.0718  141.6129  163.3452 C.ar    1  UNL1        0.1513
     18 C         138.2632  141.8427  161.8753 C.ar    1  UNL1        0.0336
     19 C         138.5876  140.6900  160.9720 C.ar    1  UNL1       -0.0233
     20 C         138.7790  140.9198  159.5021 C.3     1  UNL1        0.0249
     21 C         140.1245  141.3217  158.9748 C.3     1  UNL1        0.0217
     22 C         140.3159  141.5515  157.5049 C.3     1  UNL1        0.0725
     23 N         139.1618  141.3793  156.5624 N.3     1  UNL1       -0.2715
     24 C         139.3531  141.6091  155.0924 C.3     1  UNL1        0.0896
     25 C         137.8163  140.9774  157.0897 C.3     1  UNL1        0.0725
     26 C         137.6249  140.7477  158.5596 C.3     1  UNL1        0.0217
     27 O         137.7473  142.7656  164.2486 O.3     1  UNL1       -0.4779
     28 C         138.8404  143.6750  164.7261 C.3     1  UNL1        0.1662
     29 C         140.2755  143.3221  164.4691 C.3     1  UNL1        0.0472
     30 C         138.4984  144.9373  165.4607 C.3     1  UNL1        0.0472
     31 N         143.1540  140.2460  166.0994 N.pl3   1  UNL1       -0.2968
     32 H         143.8354  139.5730  166.3275 H       1  UNL1        0.1536
     33 C         143.5018  141.3871  165.1901 C.ar    1  UNL1        0.0667
     34 C         143.8066  142.7385  165.7652 C.ar    1  UNL1        0.0159
     35 C         144.1544  143.8795  164.8559 C.ar    1  UNL1        0.0014
     36 C         144.1975  143.6692  163.3713 C.ar    1  UNL1        0.0014
     37 C         143.8927  142.3178  162.7961 C.ar    1  UNL1        0.0196
     38 C         143.5449  141.1767  163.7055 C.ar    1  UNL1        0.1189
     39 S         143.2401  139.8253  163.1303 S.O2    1  UNL1        0.0082
     40 O         141.9486  140.3517  162.5780 O.2     1  UNL1       -0.1686
     41 O         144.5316  139.2990  163.6827 O.2     1  UNL1       -0.1686
     42 C         142.9353  138.4740  162.5552 C.3     1  UNL1        0.1340
     43 C         143.7276  137.9584  161.3905 C.3     1  UNL1        0.0257
     44 C         141.8381  137.6381  163.1447 C.3     1  UNL1        0.0257
@<TRIPOS>BOND
     1    13    14    1
     2    14    15   ar
     3    15    16   ar
     4    16    11    1
     5    11     1    1
     6     1     2   ar
     7     2     3   ar
     8     3    31    1
     9    31    33    1
    10    33    34   ar
    11    34    35   ar
    12    35    36   ar
    13    36    37   ar
    14    37    38   ar
    15    38    39    1
    16    39    40    2
    17    39    41    2
    18    39    42    1
    19    42    43    1
    20    42    44    1
    21     3     4   ar
    22     4     5   ar
    23     5     6   ar
    24     6     7   ar
    25     7     8   ar
    26     8     9   ar
    27    16    17   ar
    28    17    27    1
    29    27    28    1
    30    28    29    1
    31    28    30    1
    32    17    18   ar
    33    18    19   ar
    34    19    20    1
    35    20    21    1
    36    21    22    1
    37    22    23    1
    38    23    24    1
    39    23    25    1
    40    25    26    1
    41    19    14   ar
    42    26    20    1
    43     9     1   ar
    44    38    33   ar
    45     8     4    1
    46    11    12    1
    47    31    32    1
    48     9    10    1
@<TRIPOS>MOLECULE
*****
 44 48 0 0 0
SMALL
GASTEIGER

@<TRIPOS>ATOM
      1 C         142.0298  138.9994  165.1601 C.ar    1  UNL1        0.2006
      2 N         141.8445  140.4002  164.6569 N.ar    1  UNL1       -0.2000
      3 C         142.0438  141.5627  165.5837 C.ar    1  UNL1        0.1379
      4 C         142.4284  141.3242  167.0138 C.ar    1  UNL1        0.0673
      5 C         142.6917  142.2644  168.1525 C.ar    1  UNL1        0.0265
      6 C         143.0398  141.4446  169.3595 C.ar    1  UNL1        0.1007
      7 N         142.9916  139.9978  168.9668 N.ar    1  UNL1       -0.2268
      8 C         142.6137  139.9233  167.5170 C.ar    1  UNL1        0.1452
      9 N         142.4144  138.7609  166.5902 N.ar    1  UNL1       -0.3118
     10 H         142.5360  137.8415  166.9204 H       1  UNL1        0.1700
     11 N         141.8305  137.8369  164.2332 N.pl3   1  UNL1       -0.2816
     12 H         142.0445  136.9245  164.5348 H       1  UNL1        0.1551
     13 C         142.6864  138.7599  159.1917 C.3     1  UNL1        0.0307
     14 C         141.7331  138.5262  160.3260 C.ar    1  UNL1       -0.0244
     15 C         142.2584  138.2984  161.7124 C.ar    1  UNL1        0.0132
     16 C         141.3052  138.0647  162.8468 C.ar    1  UNL1        0.0845
     17 C         139.8265  138.0587  162.5947 C.ar    1  UNL1        0.1513
     18 C         139.3011  138.2865  161.2082 C.ar    1  UNL1        0.0336
     19 C         140.2543  138.5202  160.0740 C.ar    1  UNL1       -0.0233
     20 C         139.7290  138.7480  158.6876 C.3     1  UNL1        0.0249
     21 C         139.0006  140.0178  158.3608 C.3     1  UNL1        0.0217
     22 C         138.4752  140.2456  156.9744 C.3     1  UNL1        0.0725
     23 N         138.6783  139.2035  155.9148 N.3     1  UNL1       -0.2715
     24 C         138.1530  139.4312  154.5283 C.3     1  UNL1        0.0896
     25 C         139.4067  137.9336  156.2416 C.3     1  UNL1        0.0725
     26 C         139.9321  137.7059  157.6280 C.3     1  UNL1        0.0217
     27 O         138.8733  137.8250  163.7290 O.3     1  UNL1       -0.4779
     28 C         138.4795  138.9623  164.6242 C.3     1  UNL1        0.1662
     29 C         138.1323  140.2966  164.0332 C.3     1  UNL1        0.0472
     30 C         138.4330  138.7655  166.1105 C.3     1  UNL1        0.0472
     31 N         141.8584  142.9635  165.0804 N.pl3   1  UNL1       -0.2968
     32 H         142.6106  143.5983  165.1032 H       1  UNL1        0.1536
     33 C         140.5271  143.3972  164.5424 C.ar    1  UNL1        0.0667
     34 C         139.4662  143.8958  165.4783 C.ar    1  UNL1        0.0159
     35 C         138.1349  144.3294  164.9402 C.ar    1  UNL1        0.0014
     36 C         137.8645  144.2644  163.4662 C.ar    1  UNL1        0.0014
     37 C         138.9254  143.7658  162.5303 C.ar    1  UNL1        0.0196
     38 C         140.2567  143.3322  163.0684 C.ar    1  UNL1        0.1189
     39 S         141.3176  142.8336  162.1325 S.O2    1  UNL1        0.0082
     40 O         140.4792  141.6286  161.8241 O.2     1  UNL1       -0.1686
     41 O         142.1560  144.0386  162.4409 O.2     1  UNL1       -0.1686
     42 C         142.3785  142.3350  161.1966 C.3     1  UNL1        0.1340
     43 C         143.6706  141.8036  161.7423 C.3     1  UNL1        0.0257
     44 C         142.1471  142.3679  159.7149 C.3     1  UNL1        0.0257
@<TRIPOS>BOND
     1    13    14    1
     2    14    15   ar
     3    15    16   ar
     4    16    11    1
     5    11     1    1
     6     1     2   ar
     7     2     3   ar
     8     3    31    1
     9    31    33    1
    10    33    34   ar
    11    34    35   ar
    12    35    36   ar
    13    36    37   ar
    14    37    38   ar
    15    38    39    1
    16    39    40    2
    17    39    41    2
    18    39    42    1
    19    42    43    1
    20    42    44    1
    21     3     4   ar
    22     4     5   ar
    23     5     6   ar
    24     6     7   ar
    25     7     8   ar
    26     8     9   ar
    27    16    17   ar
    28    17    27    1
    29    27    28    1
    30    28    29    1
    31    28    30    1
    32    17    18   ar
    33    18    19   ar
    34    19    20    1
    35    20    21    1
    36    21    22    1
    37    22    23    1
    38    23    24    1
    39    23    25    1
    40    25    26    1
    41    19    14   ar
    42    26    20    1
    43     9     1   ar
    44    38    33   ar
    45     8     4    1
    46    11    12    1
    47    31    32    1
    48     9    10    1
@<TRIPOS>MOLECULE
*****
 44 48 0 0 0
SMALL
GASTEIGER

@<TRIPOS>ATOM
      1 C         142.0242  139.3125  160.6901 C.ar    1  UNL1        0.2006
      2 N         142.3338  140.7642  160.9054 N.ar    1  UNL1       -0.2000
      3 C         143.0815  141.5351  159.8581 C.ar    1  UNL1        0.1379
      4 C         143.5197  140.8540  158.5955 C.ar    1  UNL1        0.0673
      5 C         144.2665  141.3519  157.3938 C.ar    1  UNL1        0.0265
      6 C         144.4185  140.2078  156.4357 C.ar    1  UNL1        0.1007
      7 N         143.7656  139.0028  157.0454 N.ar    1  UNL1       -0.2268
      8 C         143.2101  139.4022  158.3802 C.ar    1  UNL1        0.1452
      9 N         142.4624  138.6314  159.4275 N.ar    1  UNL1       -0.3118
     10 H         142.2592  137.6785  159.2862 H       1  UNL1        0.1700
     11 N         141.2764  138.5416  161.7374 N.pl3   1  UNL1       -0.2816
     12 H         140.9416  137.6375  161.5380 H       1  UNL1        0.1551
     13 C         142.8490  139.4354  166.6087 C.3     1  UNL1        0.0307
     14 C         141.8251  139.5952  165.5241 C.ar    1  UNL1       -0.0244
     15 C         142.0627  138.9885  164.1731 C.ar    1  UNL1        0.0132
     16 C         141.0389  139.1483  163.0885 C.ar    1  UNL1        0.0845
     17 C         139.7774  139.9150  163.3550 C.ar    1  UNL1        0.1513
     18 C         139.5398  140.5217  164.7062 C.ar    1  UNL1        0.0336
     19 C         140.5636  140.3619  165.7906 C.ar    1  UNL1       -0.0233
     20 C         140.3260  140.9686  167.1417 C.3     1  UNL1        0.0249
     21 C         139.6723  140.1598  168.2227 C.3     1  UNL1        0.0217
     22 C         139.4348  140.7665  169.5737 C.3     1  UNL1        0.0725
     23 N         139.8508  142.1821  169.8439 N.3     1  UNL1       -0.2715
     24 C         139.6133  142.7889  171.1950 C.3     1  UNL1        0.0896
     25 C         140.5045  142.9909  168.7629 C.3     1  UNL1        0.0725
     26 C         140.7421  142.3842  167.4118 C.3     1  UNL1        0.0217
     27 O         138.7536  140.0748  162.2705 O.3     1  UNL1       -0.4779
     28 C         138.6160  141.3868  161.5565 C.3     1  UNL1        0.1662
     29 C         138.0472  142.5751  162.2738 C.3     1  UNL1        0.0472
     30 C         139.0472  141.5104  160.1251 C.3     1  UNL1        0.0472
     31 N         143.3911  142.9869  160.0735 N.pl3   1  UNL1       -0.2968
     32 H         144.2806  143.3401  159.8428 H       1  UNL1        0.1536
     33 C         142.3453  143.9007  160.6404 C.ar    1  UNL1        0.0667
     34 C         141.3173  144.5155  159.7375 C.ar    1  UNL1        0.0159
     35 C         140.2716  145.4293  160.3045 C.ar    1  UNL1        0.0014
     36 C         140.2538  145.7281  161.7743 C.ar    1  UNL1        0.0014
     37 C         141.2818  145.1133  162.6772 C.ar    1  UNL1        0.0196
     38 C         142.3276  144.1995  162.1102 C.ar    1  UNL1        0.1189
     39 S         143.3556  143.5847  163.0131 S.O2    1  UNL1        0.0082
     40 O         144.4147  144.4489  162.3956 O.2     1  UNL1       -0.1686
     41 O         142.2964  142.7205  163.6305 O.2     1  UNL1       -0.1686
     42 C         144.3836  142.9698  163.9159 C.3     1  UNL1        0.1340
     43 C         145.3805  141.9950  163.3630 C.3     1  UNL1        0.0257
     44 C         144.4146  143.3299  165.3718 C.3     1  UNL1        0.0257
@<TRIPOS>BOND
     1    13    14    1
     2    14    15   ar
     3    15    16   ar
     4    16    11    1
     5    11     1    1
     6     1     2   ar
     7     2     3   ar
     8     3    31    1
     9    31    33    1
    10    33    34   ar
    11    34    35   ar
    12    35    36   ar
    13    36    37   ar
    14    37    38   ar
    15    38    39    1
    16    39    40    2
    17    39    41    2
    18    39    42    1
    19    42    43    1
    20    42    44    1
    21     3     4   ar
    22     4     5   ar
    23     5     6   ar
    24     6     7   ar
    25     7     8   ar
    26     8     9   ar
    27    16    17   ar
    28    17    27    1
    29    27    28    1
    30    28    29    1
    31    28    30    1
    32    17    18   ar
    33    18    19   ar
    34    19    20    1
    35    20    21    1
    36    21    22    1
    37    22    23    1
    38    23    24    1
    39    23    25    1
    40    25    26    1
    41    19    14   ar
    42    26    20    1
    43     9     1   ar
    44    38    33   ar
    45     8     4    1
    46    11    12    1
    47    31    32    1
    48     9    10    1
@<TRIPOS>MOLECULE
*****
 44 48 0 0 0
SMALL
GASTEIGER

@<TRIPOS>ATOM
      1 C         141.8195  144.7008  160.5359 C.ar    1  UNL1        0.2006
      2 N         141.2732  143.3113  160.3921 N.ar    1  UNL1       -0.2000
      3 C         140.8342  142.8134  159.0469 C.ar    1  UNL1        0.1379
      4 C         140.9417  143.7050  157.8455 C.ar    1  UNL1        0.0673
      5 C         140.5909  143.4918  156.4028 C.ar    1  UNL1        0.0265
      6 C         140.9205  144.7496  155.6549 C.ar    1  UNL1        0.1007
      7 N         141.4750  145.7402  156.6354 N.ar    1  UNL1       -0.2268
      8 C         141.4881  145.0946  157.9893 C.ar    1  UNL1        0.1452
      9 N         141.9270  145.5925  159.3345 N.ar    1  UNL1       -0.3118
     10 H         142.2856  146.5045  159.4289 H       1  UNL1        0.1700
     11 N         142.2584  145.1988  161.8811 N.pl3   1  UNL1       -0.2816
     12 H         142.8212  146.0037  161.9484 H       1  UNL1        0.1551
     13 C         138.6138  144.0111  165.3893 C.3     1  UNL1        0.0307
     14 C         140.0175  143.8763  164.8778 C.ar    1  UNL1       -0.0244
     15 C         140.4361  144.6049  163.6352 C.ar    1  UNL1        0.0132
     16 C         141.8398  144.4702  163.1236 C.ar    1  UNL1        0.0845
     17 C         142.8248  143.6069  163.8546 C.ar    1  UNL1        0.1513
     18 C         142.4061  142.8782  165.0973 C.ar    1  UNL1        0.0336
     19 C         141.0026  143.0130  165.6088 C.ar    1  UNL1       -0.0233
     20 C         140.5840  142.2844  166.8513 C.3     1  UNL1        0.0249
     21 C         140.0821  140.8738  166.7605 C.3     1  UNL1        0.0217
     22 C         139.6634  140.1452  168.0030 C.3     1  UNL1        0.0725
     23 N         139.7467  140.8273  169.3364 N.3     1  UNL1       -0.2715
     24 C         139.3281  140.0988  170.5790 C.3     1  UNL1        0.0896
     25 C         140.2486  142.2379  169.4272 C.3     1  UNL1        0.0725
     26 C         140.6672  142.9665  168.1847 C.3     1  UNL1        0.0217
     27 O         144.2284  143.4721  163.3431 O.3     1  UNL1       -0.4779
     28 C         144.7346  142.1366  162.8847 C.3     1  UNL1        0.1662
     29 C         144.2654  141.5642  161.5800 C.3     1  UNL1        0.0472
     30 C         145.7101  141.3735  163.7309 C.3     1  UNL1        0.0472
     31 N         140.2879  141.4238  158.9032 N.pl3   1  UNL1       -0.2968
     32 H         139.4526  141.2724  158.4046 H       1  UNL1        0.1536
     33 C         141.0141  140.2650  159.5194 C.ar    1  UNL1        0.0667
     34 C         142.1020  139.5699  158.7557 C.ar    1  UNL1        0.0159
     35 C         142.8282  138.4110  159.3719 C.ar    1  UNL1        0.0014
     36 C         142.4664  137.9473  160.7518 C.ar    1  UNL1        0.0014
     37 C         141.3785  138.6423  161.5154 C.ar    1  UNL1        0.0196
     38 C         140.6523  139.8012  160.8992 C.ar    1  UNL1        0.1189
     39 S         139.5644  140.4963  161.6629 S.O2    1  UNL1        0.0082
     40 O         140.5715  140.9655  162.6706 O.2     1  UNL1       -0.1686
     41 O         138.5572  140.0271  160.6552 O.2     1  UNL1       -0.1686
     42 C         138.4764  141.1914  162.4266 C.3     1  UNL1        0.1340
     43 C         137.9581  140.5970  163.7025 C.3     1  UNL1        0.0257
     44 C         137.9067  142.4810  161.9142 C.3     1  UNL1        0.0257
@<TRIPOS>BOND
     1    13    14    1
     2    14    15   ar
     3    15    16   ar
     4    16    11    1
     5    11     1    1
     6     1     2   ar
     7     2     3   ar
     8     3    31    1
     9    31    33    1
    10    33    34   ar
    11    34    35   ar
    12    35    36   ar
    13    36    37   ar
    14    37    38   ar
    15    38    39    1
    16    39    40    2
    17    39    41    2
    18    39    42    1
    19    42    43    1
    20    42    44    1
    21     3     4   ar
    22     4     5   ar
    23     5     6   ar
    24     6     7   ar
    25     7     8   ar
    26     8     9   ar
    27    16    17   ar
    28    17    27    1
    29    27    28    1
    30    28    29    1
    31    28    30    1
    32    17    18   ar
    33    18    19   ar
    34    19    20    1
    35    20    21    1
    36    21    22    1
    37    22    23    1
    38    23    24    1
    39    23    25    1
    40    25    26    1
    41    19    14   ar
    42    26    20    1
    43     9     1   ar
    44    38    33   ar
    45     8     4    1
    46    11    12    1
    47    31    32    1
    48     9    10    1
@<TRIPOS>MOLECULE
*****
 44 48 0 0 0
SMALL
GASTEIGER

@<TRIPOS>ATOM
      1 C         141.9400  138.1069  161.0601 C.ar    1  UNL1        0.2006
      2 N         140.9656  139.2261  160.8419 N.ar    1  UNL1       -0.2000
      3 C         140.8189  139.8381  159.4803 C.ar    1  UNL1        0.1379
      4 C         141.6466  139.3307  158.3369 C.ar    1  UNL1        0.0673
      5 C         141.7194  139.7340  156.8940 C.ar    1  UNL1        0.0265
      6 C         142.7389  138.8640  156.2204 C.ar    1  UNL1        0.1007
      7 N         143.2961  137.9229  157.2471 N.ar    1  UNL1       -0.2268
      8 C         142.6211  138.2114  158.5551 C.ar    1  UNL1        0.1452
      9 N         142.7677  137.5995  159.9168 N.ar    1  UNL1       -0.3118
     10 H         143.4073  136.8649  160.0600 H       1  UNL1        0.1700
     11 N         142.0867  137.4949  162.4218 N.pl3   1  UNL1       -0.2816
     12 H         142.4119  136.5702  162.5135 H       1  UNL1        0.1551
     13 C         138.5856  139.0502  165.9324 C.3     1  UNL1        0.0307
     14 C         139.9875  139.0696  165.3991 C.ar    1  UNL1       -0.0244
     15 C         140.3362  138.2726  164.1771 C.ar    1  UNL1        0.0132
     16 C         141.7380  138.2920  163.6437 C.ar    1  UNL1        0.0845
     17 C         142.7912  139.1084  164.3324 C.ar    1  UNL1        0.1513
     18 C         142.4425  139.9055  165.5544 C.ar    1  UNL1        0.0336
     19 C         141.0408  139.8861  166.0877 C.ar    1  UNL1       -0.0233
     20 C         140.6921  140.6831  167.3096 C.3     1  UNL1        0.0249
     21 C         140.7195  142.1821  167.2604 C.3     1  UNL1        0.0217
     22 C         140.3708  142.9791  168.4823 C.3     1  UNL1        0.0725
     23 N         139.9947  142.2772  169.7535 N.3     1  UNL1       -0.2715
     24 C         139.6460  143.0742  170.9755 C.3     1  UNL1        0.0896
     25 C         139.9673  140.7783  169.8027 C.3     1  UNL1        0.0725
     26 C         140.3160  139.9812  168.5807 C.3     1  UNL1        0.0217
     27 O         144.1931  139.1278  163.7991 O.3     1  UNL1       -0.4779
     28 C         144.7237  140.3606  163.1292 C.3     1  UNL1        0.1662
     29 C         145.6541  141.2750  163.8697 C.3     1  UNL1        0.0472
     30 C         144.3240  140.6789  161.7190 C.3     1  UNL1        0.0472
     31 N         139.8444  140.9575  159.2621 N.pl3   1  UNL1       -0.2968
     32 H         138.9262  140.7602  158.9667 H       1  UNL1        0.1536
     33 C         140.2689  142.3773  159.4942 C.ar    1  UNL1        0.0667
     34 C         141.1181  143.0819  158.4781 C.ar    1  UNL1        0.0159
     35 C         141.5425  144.5017  158.7102 C.ar    1  UNL1        0.0014
     36 C         141.1177  145.2170  159.9584 C.ar    1  UNL1        0.0014
     37 C         140.2685  144.5124  160.9745 C.ar    1  UNL1        0.0196
     38 C         139.8440  143.0926  160.7423 C.ar    1  UNL1        0.1189
     39 S         138.9948  142.3880  161.7584 S.O2    1  UNL1        0.0082
     40 O         140.2312  141.9113  162.4613 O.2     1  UNL1       -0.1686
     41 O         137.7584  142.8646  161.0555 O.2     1  UNL1       -0.1686
     42 C         138.1456  141.6834  162.7744 C.3     1  UNL1        0.1340
     43 C         137.6750  140.2826  162.5171 C.3     1  UNL1        0.0257
     44 C         137.7669  142.3798  164.0479 C.3     1  UNL1        0.0257
@<TRIPOS>BOND
     1    13    14    1
     2    14    15   ar
     3    15    16   ar
     4    16    11    1
     5    11     1    1
     6     1     2   ar
     7     2     3   ar
     8     3    31    1
     9    31    33    1
    10    33    34   ar
    11    34    35   ar
    12    35    36   ar
    13    36    37   ar
    14    37    38   ar
    15    38    39    1
    16    39    40    2
    17    39    41    2
    18    39    42    1
    19    42    43    1
    20    42    44    1
    21     3     4   ar
    22     4     5   ar
    23     5     6   ar
    24     6     7   ar
    25     7     8   ar
    26     8     9   ar
    27    16    17   ar
    28    17    27    1
    29    27    28    1
    30    28    29    1
    31    28    30    1
    32    17    18   ar
    33    18    19   ar
    34    19    20    1
    35    20    21    1
    36    21    22    1
    37    22    23    1
    38    23    24    1
    39    23    25    1
    40    25    26    1
    41    19    14   ar
    42    26    20    1
    43     9     1   ar
    44    38    33   ar
    45     8     4    1
    46    11    12    1
    47    31    32    1
    48     9    10    1
@<TRIPOS>MOLECULE
*****
 44 48 0 0 0
SMALL
GASTEIGER

@<TRIPOS>ATOM
      1 C         139.8718  139.2771  165.2785 C.ar    1  UNL1        0.2006
      2 N         140.7479  140.4747  165.0597 N.ar    1  UNL1       -0.2000
      3 C         140.9992  141.4356  166.1838 C.ar    1  UNL1        0.1379
      4 C         140.3742  141.1988  167.5267 C.ar    1  UNL1        0.0673
      5 C         140.4398  141.9665  168.8137 C.ar    1  UNL1        0.0265
      6 C         139.6041  141.2432  169.8279 C.ar    1  UNL1        0.1007
      7 N         139.0221  140.0285  169.1677 N.ar    1  UNL1       -0.2268
      8 C         139.4981  140.0011  167.7455 C.ar    1  UNL1        0.1452
      9 N         139.2468  139.0402  166.6213 N.ar    1  UNL1       -0.3118
     10 H         138.6718  138.2541  166.7649 H       1  UNL1        0.1700
     11 N         139.6205  138.3161  164.1543 N.pl3   1  UNL1       -0.2816
     12 H         138.9688  137.5868  164.2666 H       1  UNL1        0.1551
     13 C         143.9534  137.7032  161.3523 C.3     1  UNL1        0.0307
     14 C         142.5286  138.1601  161.4582 C.ar    1  UNL1       -0.0244
     15 C         141.7869  138.0097  162.7533 C.ar    1  UNL1        0.0132
     16 C         140.3621  138.4666  162.8592 C.ar    1  UNL1        0.0845
     17 C         139.6790  139.0740  161.6700 C.ar    1  UNL1        0.1513
     18 C         140.4207  139.2245  160.3748 C.ar    1  UNL1        0.0336
     19 C         141.8453  138.7676  160.2689 C.ar    1  UNL1       -0.0233
     20 C         142.5870  138.9180  158.9738 C.3     1  UNL1        0.0249
     21 C         142.4867  137.8515  157.9238 C.3     1  UNL1        0.0217
     22 C         143.2283  138.0020  156.6287 C.3     1  UNL1        0.0725
     23 N         144.0703  139.2190  156.3836 N.3     1  UNL1       -0.2715
     24 C         144.8120  139.3695  155.0885 C.3     1  UNL1        0.0896
     25 C         144.1706  140.2855  157.4336 C.3     1  UNL1        0.0725
     26 C         143.4289  140.1350  158.7287 C.3     1  UNL1        0.0217
     27 O         138.2542  139.5310  161.7758 O.3     1  UNL1       -0.4779
     28 C         137.9474  140.9758  162.0374 C.3     1  UNL1        0.1662
     29 C         137.4842  141.4101  163.3964 C.3     1  UNL1        0.0472
     30 C         138.1038  141.9863  160.9399 C.3     1  UNL1        0.0472
     31 N         141.8753  142.6333  165.9650 N.pl3   1  UNL1       -0.2968
     32 H         141.7895  143.4197  166.5510 H       1  UNL1        0.1536
     33 C         142.8823  142.6328  164.8533 C.ar    1  UNL1        0.0667
     34 C         144.1572  141.8555  164.9963 C.ar    1  UNL1        0.0159
     35 C         145.1641  141.8550  163.8846 C.ar    1  UNL1        0.0014
     36 C         144.8962  142.6319  162.6297 C.ar    1  UNL1        0.0014
     37 C         143.6214  143.4093  162.4866 C.ar    1  UNL1        0.0196
     38 C         142.6144  143.4097  163.5984 C.ar    1  UNL1        0.1189
     39 S         141.3396  144.1871  163.4553 S.O2    1  UNL1        0.0082
     40 O         142.0125  145.3969  164.0330 O.2     1  UNL1       -0.1686
     41 O         140.6667  142.9773  162.8777 O.2     1  UNL1       -0.1686
     42 C         140.0648  144.9645  163.3123 C.3     1  UNL1        0.1340
     43 C         138.9899  144.8402  164.3510 C.3     1  UNL1        0.0257
     44 C         139.8649  145.8662  162.1303 C.3     1  UNL1        0.0257
@<TRIPOS>BOND
     1    13    14    1
     2    14    15   ar
     3    15    16   ar
     4    16    11    1
     5    11     1    1
     6     1     2   ar
     7     2     3   ar
     8     3    31    1
     9    31    33    1
    10    33    34   ar
    11    34    35   ar
    12    35    36   ar
    13    36    37   ar
    14    37    38   ar
    15    38    39    1
    16    39    40    2
    17    39    41    2
    18    39    42    1
    19    42    43    1
    20    42    44    1
    21     3     4   ar
    22     4     5   ar
    23     5     6   ar
    24     6     7   ar
    25     7     8   ar
    26     8     9   ar
    27    16    17   ar
    28    17    27    1
    29    27    28    1
    30    28    29    1
    31    28    30    1
    32    17    18   ar
    33    18    19   ar
    34    19    20    1
    35    20    21    1
    36    21    22    1
    37    22    23    1
    38    23    24    1
    39    23    25    1
    40    25    26    1
    41    19    14   ar
    42    26    20    1
    43     9     1   ar
    44    38    33   ar
    45     8     4    1
    46    11    12    1
    47    31    32    1
    48     9    10    1
@<TRIPOS>MOLECULE
*****
 44 48 0 0 0
SMALL
GASTEIGER

@<TRIPOS>ATOM
      1 C         141.5570  144.8382  160.6926 C.ar    1  UNL1        0.2006
      2 N         141.8748  143.3897  160.4677 N.ar    1  UNL1       -0.2000
      3 C         142.1648  142.8916  159.0828 C.ar    1  UNL1        0.1379
      4 C         142.1369  143.8422  157.9228 C.ar    1  UNL1        0.0673
      5 C         142.3789  143.6431  156.4559 C.ar    1  UNL1        0.0265
      6 C         142.2107  144.9686  155.7742 C.ar    1  UNL1        0.1007
      7 N         141.8647  145.9870  156.8198 N.ar    1  UNL1       -0.2268
      8 C         141.8190  145.2908  158.1477 C.ar    1  UNL1        0.1452
      9 N         141.5291  145.7888  159.5326 N.ar    1  UNL1       -0.3118
     10 H         141.3205  146.7396  159.6802 H       1  UNL1        0.1700
     11 N         141.2671  145.3363  162.0775 N.pl3   1  UNL1       -0.2816
     12 H         140.9151  146.2462  162.2098 H       1  UNL1        0.1551
     13 C         144.5435  143.2187  165.5099 C.3     1  UNL1        0.0307
     14 C         143.1517  143.3892  164.9771 C.ar    1  UNL1       -0.0244
     15 C         142.9053  144.2775  163.7937 C.ar    1  UNL1        0.0132
     16 C         141.5135  144.4481  163.2608 C.ar    1  UNL1        0.0845
     17 C         140.3682  143.7304  163.9112 C.ar    1  UNL1        0.1513
     18 C         140.6146  142.8420  165.0946 C.ar    1  UNL1        0.0336
     19 C         142.0063  142.6715  165.6275 C.ar    1  UNL1       -0.0233
     20 C         142.2527  141.7832  166.8108 C.3     1  UNL1        0.0249
     21 C         142.3046  142.3692  168.1906 C.3     1  UNL1        0.0217
     22 C         142.5510  141.4810  169.3739 C.3     1  UNL1        0.0725
     23 N         142.7456  140.0067  169.1774 N.3     1  UNL1       -0.2715
     24 C         142.9921  139.1183  170.3607 C.3     1  UNL1        0.0896
     25 C         142.6938  139.4207  167.7976 C.3     1  UNL1        0.0725
     26 C         142.4473  140.3090  166.6143 C.3     1  UNL1        0.0217
     27 O         138.9765  143.9009  163.3784 O.3     1  UNL1       -0.4779
     28 C         138.3081  142.7718  162.6515 C.3     1  UNL1        0.1662
     29 C         138.5438  142.5815  161.1824 C.3     1  UNL1        0.0472
     30 C         137.4039  141.8329  163.3938 C.3     1  UNL1        0.0472
     31 N         142.4826  141.4430  158.8579 N.pl3   1  UNL1       -0.2968
     32 H         143.2899  141.1884  158.3553 H       1  UNL1        0.1536
     33 C         141.5704  140.3823  159.3990 C.ar    1  UNL1        0.0667
     34 C         140.3839  139.9337  158.5985 C.ar    1  UNL1        0.0159
     35 C         139.4717  138.8730  159.1396 C.ar    1  UNL1        0.0014
     36 C         139.7461  138.2609  160.4813 C.ar    1  UNL1        0.0014
     37 C         140.9326  138.7095  161.2818 C.ar    1  UNL1        0.0196
     38 C         141.8448  139.7702  160.7407 C.ar    1  UNL1        0.1189
     39 S         143.0313  140.2188  161.5412 S.O2    1  UNL1        0.0082
     40 O         142.1159  140.8896  162.5220 O.2     1  UNL1       -0.1686
     41 O         143.9467  139.5480  160.5603 O.2     1  UNL1       -0.1686
     42 C         144.2178  140.6675  162.3417 C.3     1  UNL1        0.1340
     43 C         144.6292  139.9037  163.5654 C.3     1  UNL1        0.0257
     44 C         144.9930  141.8799  161.9185 C.3     1  UNL1        0.0257
@<TRIPOS>BOND
     1    13    14    1
     2    14    15   ar
     3    15    16   ar
     4    16    11    1
     5    11     1    1
     6     1     2   ar
     7     2     3   ar
     8     3    31    1
     9    31    33    1
    10    33    34   ar
    11    34    35   ar
    12    35    36   ar
    13    36    37   ar
    14    37    38   ar
    15    38    39    1
    16    39    40    2
    17    39    41    2
    18    39    42    1
    19    42    43    1
    20    42    44    1
    21     3     4   ar
    22     4     5   ar
    23     5     6   ar
    24     6     7   ar
    25     7     8   ar
    26     8     9   ar
    27    16    17   ar
    28    17    27    1
    29    27    28    1
    30    28    29    1
    31    28    30    1
    32    17    18   ar
    33    18    19   ar
    34    19    20    1
    35    20    21    1
    36    21    22    1
    37    22    23    1
    38    23    24    1
    39    23    25    1
    40    25    26    1
    41    19    14   ar
    42    26    20    1
    43     9     1   ar
    44    38    33   ar
    45     8     4    1
    46    11    12    1
    47    31    32    1
    48     9    10    1
@<TRIPOS>MOLECULE
*****
 44 48 0 0 0
SMALL
GASTEIGER

@<TRIPOS>ATOM
      1 C         143.5779  139.5154  160.8521 C.ar    1  UNL1        0.2006
      2 N         142.0987  139.5478  161.0979 N.ar    1  UNL1       -0.2000
      3 C         141.1477  139.1677  160.0018 C.ar    1  UNL1        0.1379
      4 C         141.6762  138.7551  158.6600 C.ar    1  UNL1        0.0673
      5 C         140.9870  138.3299  157.3974 C.ar    1  UNL1        0.0265
      6 C         142.0405  138.0347  156.3712 C.ar    1  UNL1        0.1007
      7 N         143.3807  138.2775  156.9997 N.ar    1  UNL1       -0.2268
      8 C         143.1555  138.7227  158.4142 C.ar    1  UNL1        0.1452
      9 N         144.1064  139.1029  159.5103 N.ar    1  UNL1       -0.3118
     10 H         145.0774  139.0816  159.3490 H       1  UNL1        0.1700
     11 N         144.5289  139.8955  161.9481 N.pl3   1  UNL1       -0.2816
     12 H         145.4969  139.9266  161.7712 H       1  UNL1        0.1551
     13 C         143.3543  138.4387  166.7957 C.3     1  UNL1        0.0307
     14 C         143.4176  139.4999  165.7375 C.ar    1  UNL1       -0.0244
     15 C         143.9416  139.1671  164.3720 C.ar    1  UNL1        0.0132
     16 C         144.0050  140.2283  163.3137 C.ar    1  UNL1        0.0845
     17 C         143.5443  141.6224  163.6210 C.ar    1  UNL1        0.1513
     18 C         143.0204  141.9552  164.9866 C.ar    1  UNL1        0.0336
     19 C         142.9570  140.8940  166.0448 C.ar    1  UNL1       -0.0233
     20 C         142.4331  141.2268  167.4103 C.3     1  UNL1        0.0249
     21 C         143.3155  141.9241  168.4028 C.3     1  UNL1        0.0217
     22 C         142.7916  142.2569  169.7684 C.3     1  UNL1        0.0725
     23 N         141.3852  141.8924  170.1414 N.3     1  UNL1       -0.2715
     24 C         140.8611  142.2252  171.5069 C.3     1  UNL1        0.0896
     25 C         140.5027  141.1952  169.1488 C.3     1  UNL1        0.0725
     26 C         141.0266  140.8624  167.7833 C.3     1  UNL1        0.0217
     27 O         143.6077  142.6836  162.5628 O.3     1  UNL1       -0.4779
     28 C         142.8853  143.9833  162.7599 C.3     1  UNL1        0.1662
     29 C         141.4553  144.1195  162.3280 C.3     1  UNL1        0.0472
     30 C         143.5928  145.1468  163.3889 C.3     1  UNL1        0.0472
     31 N         139.6683  139.2001  160.2477 N.pl3   1  UNL1       -0.2968
     32 H         139.1034  138.4504  159.9508 H       1  UNL1        0.1536
     33 C         139.0496  140.3747  160.9459 C.ar    1  UNL1        0.0667
     34 C         138.6468  141.5873  160.1603 C.ar    1  UNL1        0.0159
     35 C         138.0281  142.7619  160.8585 C.ar    1  UNL1        0.0014
     36 C         137.8123  142.7238  162.3424 C.ar    1  UNL1        0.0014
     37 C         138.2151  141.5112  163.1281 C.ar    1  UNL1        0.0196
     38 C         138.8338  140.3366  162.4298 C.ar    1  UNL1        0.1189
     39 S         139.2366  139.1240  163.2154 S.O2    1  UNL1        0.0082
     40 O         140.2879  139.9295  163.9197 O.2     1  UNL1       -0.1686
     41 O         138.1853  138.3185  162.5112 O.2     1  UNL1       -0.1686
     42 C         139.6394  137.9114  164.0011 C.3     1  UNL1        0.1340
     43 C         140.8409  137.1145  163.5871 C.3     1  UNL1        0.0257
     44 C         138.8407  137.4956  165.2008 C.3     1  UNL1        0.0257
@<TRIPOS>BOND
     1    13    14    1
     2    14    15   ar
     3    15    16   ar
     4    16    11    1
     5    11     1    1
     6     1     2   ar
     7     2     3   ar
     8     3    31    1
     9    31    33    1
    10    33    34   ar
    11    34    35   ar
    12    35    36   ar
    13    36    37   ar
    14    37    38   ar
    15    38    39    1
    16    39    40    2
    17    39    41    2
    18    39    42    1
    19    42    43    1
    20    42    44    1
    21     3     4   ar
    22     4     5   ar
    23     5     6   ar
    24     6     7   ar
    25     7     8   ar
    26     8     9   ar
    27    16    17   ar
    28    17    27    1
    29    27    28    1
    30    28    29    1
    31    28    30    1
    32    17    18   ar
    33    18    19   ar
    34    19    20    1
    35    20    21    1
    36    21    22    1
    37    22    23    1
    38    23    24    1
    39    23    25    1
    40    25    26    1
    41    19    14   ar
    42    26    20    1
    43     9     1   ar
    44    38    33   ar
    45     8     4    1
    46    11    12    1
    47    31    32    1
    48     9    10    1
