@<TRIPOS>MOLECULE
*****
 34 38 0 0 0
SMALL
GASTEIGER

@<TRIPOS>ATOM
      1 C         139.8520  141.0583  168.6309 C.3     1  UNL1        0.0765
      2 C         138.8831  140.1750  169.3594 C.3     1  UNL1        0.0091
      3 C         138.2335  139.2711  168.3539 C.3     1  UNL1        0.0005
      4 C         138.8010  139.5959  167.0040 C.3     1  UNL1        0.0005
      5 C         137.7778  138.4991  166.9878 C.3     1  UNL1        0.0000
      6 C         138.5362  139.0284  165.6408 C.3     1  UNL1        0.0003
      7 C         139.2717  139.5656  164.4490 C.3     1  UNL1        0.0043
      8 C         140.2720  140.6702  164.6202 C.3     1  UNL1        0.0220
      9 C         141.0074  141.2074  163.4283 C.ar    1  UNL1       -0.0263
     10 C         140.7426  140.6400  162.0653 C.ar    1  UNL1       -0.0015
     11 C         141.4780  141.1772  160.8735 C.ar    1  UNL1        0.0366
     12 C         142.4783  142.2817  161.0446 C.ar    1  UNL1        0.1382
     13 C         142.7432  142.8491  162.4077 C.ar    1  UNL1        0.0323
     14 C         142.0077  142.3120  163.5995 C.ar    1  UNL1       -0.0231
     15 C         142.2725  142.8794  164.9626 C.3     1  UNL1        0.0261
     16 C         141.5371  142.3422  166.1544 C.3     1  UNL1        0.0050
     17 C         140.5368  141.2376  165.9832 C.3     1  UNL1        0.0048
     18 C         139.8013  140.7004  167.1752 C.3     1  UNL1        0.0089
     19 N         142.0864  141.7605  169.7554 N.am    1  UNL1       -0.3043
     20 C         140.7194  142.1143  169.2496 C.2     1  UNL1        0.2220
     21 O         140.2196  143.5240  169.3624 O.2     1  UNL1       -0.2751
     22 H         142.4145  140.8352  169.6814 H       1  UNL1        0.1494
     23 C         144.4210  142.8575  170.0654 C.3     1  UNL1        0.0230
     24 C         142.9537  142.8164  170.3741 C.3     1  UNL1        0.0894
     25 O         143.2138  142.8189  159.8527 O.3     1  UNL1       -0.4754
     26 C         142.4737  143.5879  158.7988 C.3     1  UNL1        0.2068
     27 C         141.6000  144.7434  159.1880 C.3     1  UNL1        0.0646
     28 C         140.1724  144.5049  159.5817 C.3     1  UNL1        0.0759
     29 N         139.7725  144.5664  161.0261 N.3     1  UNL1       -0.2738
     30 C         140.2845  145.5443  162.0418 C.3     1  UNL1        0.0721
     31 C         139.6188  145.2431  163.3518 C.3     1  UNL1        0.0187
     32 C         138.6954  144.0791  163.1457 C.3     1  UNL1        0.0174
     33 C         138.7904  143.6609  161.7083 C.3     1  UNL1        0.0576
     34 C         138.0357  142.5349  161.0660 C.3     1  UNL1        0.0173
@<TRIPOS>BOND
     1    23    24    1
     2    24    19    1
     3    19    20   am
     4    20    21    2
     5     1    20    1
     6     1     2    1
     7     2     3    1
     8     3     4    1
     9     4     5    1
    10     4     6    1
    11     6     7    1
    12     8     7    1
    13     8     9    1
    14     9    10   ar
    15    10    11   ar
    16    11    12   ar
    17    12    25    1
    18    25    26    1
    19    26    27    1
    20    27    28    1
    21    28    29    1
    22    29    30    1
    23    30    31    1
    24    31    32    1
    25    32    33    1
    26    33    34    1
    27    12    13   ar
    28    13    14   ar
    29    14    15    1
    30    15    16    1
    31    17    16    1
    32    17    18    1
    33    18     1    1
    34    18     4    1
    35    17     8    1
    36    14     9   ar
    37    33    29    1
    38    19    22    1
@<TRIPOS>MOLECULE
*****
 34 38 0 0 0
SMALL
GASTEIGER

@<TRIPOS>ATOM
      1 C         139.8478  141.1084  168.5644 C.3     1  UNL1        0.0765
      2 C         139.0148  140.1346  169.3440 C.3     1  UNL1        0.0091
      3 C         138.2890  139.2587  168.3662 C.3     1  UNL1        0.0005
      4 C         138.6735  139.6911  166.9824 C.3     1  UNL1        0.0005
      5 C         137.7058  138.5454  167.0168 C.3     1  UNL1        0.0000
      6 C         138.2708  139.1916  165.6265 C.3     1  UNL1        0.0003
      7 C         138.8315  139.8352  164.3931 C.3     1  UNL1        0.0043
      8 C         139.7949  140.9784  164.5156 C.3     1  UNL1        0.0220
      9 C         140.3556  141.6221  163.2821 C.ar    1  UNL1       -0.0263
     10 C         139.9529  141.1226  161.9263 C.ar    1  UNL1       -0.0015
     11 C         140.5136  141.7663  160.6929 C.ar    1  UNL1        0.0366
     12 C         141.4770  142.9095  160.8154 C.ar    1  UNL1        0.1382
     13 C         141.8797  143.4090  162.1712 C.ar    1  UNL1        0.0323
     14 C         141.3190  142.7653  163.4046 C.ar    1  UNL1       -0.0231
     15 C         141.7217  143.2648  164.7605 C.3     1  UNL1        0.0261
     16 C         141.1610  142.6211  165.9939 C.3     1  UNL1        0.0050
     17 C         140.1976  141.4780  165.8714 C.3     1  UNL1        0.0048
     18 C         139.6369  140.8343  167.1049 C.3     1  UNL1        0.0089
     19 N         142.1070  141.8140  169.6359 N.am    1  UNL1       -0.3043
     20 C         140.7358  142.1699  169.1429 C.2     1  UNL1        0.2220
     21 O         140.2526  143.5873  169.2283 O.2     1  UNL1       -0.2751
     22 H         142.4242  140.8837  169.5798 H       1  UNL1        0.1494
     23 C         144.4822  142.7859  170.0407 C.3     1  UNL1        0.0230
     24 C         142.9950  142.8756  170.2143 C.3     1  UNL1        0.0894
     25 O         142.0377  143.5532  159.5819 O.3     1  UNL1       -0.4754
     26 C         143.4154  143.1948  159.1091 C.3     1  UNL1        0.2068
     27 C         144.0169  141.8729  159.4843 C.3     1  UNL1        0.0646
     28 C         144.7927  141.7372  160.7609 C.3     1  UNL1        0.0759
     29 N         144.2801  140.8542  161.8597 N.3     1  UNL1       -0.2738
     30 C         143.3888  139.6600  161.6879 C.3     1  UNL1        0.0721
     31 C         143.1267  139.0780  163.0453 C.3     1  UNL1        0.0187
     32 C         143.8560  139.9125  164.0561 C.3     1  UNL1        0.0174
     33 C         144.5689  141.0102  163.3234 C.3     1  UNL1        0.0576
     34 C         145.4209  142.0767  163.9452 C.3     1  UNL1        0.0173
@<TRIPOS>BOND
     1    23    24    1
     2    24    19    1
     3    19    20   am
     4    20    21    2
     5     1    20    1
     6     1     2    1
     7     2     3    1
     8     3     4    1
     9     4     5    1
    10     4     6    1
    11     6     7    1
    12     8     7    1
    13     8     9    1
    14     9    10   ar
    15    10    11   ar
    16    11    12   ar
    17    12    25    1
    18    25    26    1
    19    26    27    1
    20    27    28    1
    21    28    29    1
    22    29    30    1
    23    30    31    1
    24    31    32    1
    25    32    33    1
    26    33    34    1
    27    12    13   ar
    28    13    14   ar
    29    14    15    1
    30    15    16    1
    31    17    16    1
    32    17    18    1
    33    18     1    1
    34    18     4    1
    35    17     8    1
    36    14     9   ar
    37    33    29    1
    38    19    22    1
@<TRIPOS>MOLECULE
*****
 34 38 0 0 0
SMALL
GASTEIGER

@<TRIPOS>ATOM
      1 C         139.9973  141.1025  167.9738 C.3     1  UNL1        0.0765
      2 C         139.3868  139.9109  168.6502 C.3     1  UNL1        0.0091
      3 C         138.6022  139.1474  167.6247 C.3     1  UNL1        0.0005
      4 C         138.7277  139.8671  166.3148 C.3     1  UNL1        0.0005
      5 C         137.8857  138.6274  166.2514 C.3     1  UNL1        0.0000
      6 C         138.1683  139.5784  164.9532 C.3     1  UNL1        0.0003
      7 C         138.4711  140.4980  163.8075 C.3     1  UNL1        0.0043
      8 C         139.3333  141.7063  164.0233 C.3     1  UNL1        0.0220
      9 C         139.6361  142.6259  162.8775 C.ar    1  UNL1       -0.0263
     10 C         139.0767  142.3371  161.5161 C.ar    1  UNL1       -0.0015
     11 C         139.3795  143.2567  160.3704 C.ar    1  UNL1        0.0366
     12 C         140.2417  144.4650  160.5861 C.ar    1  UNL1        0.1382
     13 C         140.8011  144.7537  161.9476 C.ar    1  UNL1        0.0323
     14 C         140.4983  143.8342  163.0933 C.ar    1  UNL1       -0.0231
     15 C         141.0578  144.1229  164.4548 C.3     1  UNL1        0.0261
     16 C         140.7550  143.2033  165.6005 C.3     1  UNL1        0.0050
     17 C         139.8927  141.9950  165.3848 C.3     1  UNL1        0.0048
     18 C         139.5900  141.0754  166.5306 C.3     1  UNL1        0.0089
     19 N         142.3183  141.8611  168.8615 N.am    1  UNL1       -0.3043
     20 C         140.8631  142.1391  168.6264 C.2     1  UNL1        0.2220
     21 O         140.2737  143.4537  169.0440 O.2     1  UNL1       -0.2751
     22 H         142.7051  140.9983  168.5874 H       1  UNL1        0.1494
     23 C         144.4607  142.4920  170.1887 C.3     1  UNL1        0.0230
     24 C         143.1840  142.8978  169.5140 C.3     1  UNL1        0.0894
     25 O         140.5445  145.3846  159.4403 O.3     1  UNL1       -0.4754
     26 C         141.7950  145.1923  158.6346 C.3     1  UNL1        0.2068
     27 C         142.2048  143.8153  158.2029 C.3     1  UNL1        0.0646
     28 C         143.4235  143.1745  158.7978 C.3     1  UNL1        0.0759
     29 N         143.3637  142.5843  160.1755 N.3     1  UNL1       -0.2738
     30 C         144.0417  143.1282  161.3980 C.3     1  UNL1        0.0721
     31 C         143.7124  142.2266  162.5506 C.3     1  UNL1        0.0187
     32 C         142.8308  141.1254  162.0405 C.3     1  UNL1        0.0174
     33 C         142.6153  141.3465  160.5726 C.3     1  UNL1        0.0576
     34 C         141.7953  140.4816  159.6618 C.3     1  UNL1        0.0173
@<TRIPOS>BOND
     1    23    24    1
     2    24    19    1
     3    19    20   am
     4    20    21    2
     5     1    20    1
     6     1     2    1
     7     2     3    1
     8     3     4    1
     9     4     5    1
    10     4     6    1
    11     6     7    1
    12     8     7    1
    13     8     9    1
    14     9    10   ar
    15    10    11   ar
    16    11    12   ar
    17    12    25    1
    18    25    26    1
    19    26    27    1
    20    27    28    1
    21    28    29    1
    22    29    30    1
    23    30    31    1
    24    31    32    1
    25    32    33    1
    26    33    34    1
    27    12    13   ar
    28    13    14   ar
    29    14    15    1
    30    15    16    1
    31    17    16    1
    32    17    18    1
    33    18     1    1
    34    18     4    1
    35    17     8    1
    36    14     9   ar
    37    33    29    1
    38    19    22    1
@<TRIPOS>MOLECULE
*****
 34 38 0 0 0
SMALL
GASTEIGER

@<TRIPOS>ATOM
      1 C         140.4754  140.2926  169.0131 C.3     1  UNL1        0.0765
      2 C         141.0786  140.0934  170.3720 C.3     1  UNL1        0.0091
      3 C         142.3844  140.8305  170.4121 C.3     1  UNL1        0.0005
      4 C         142.5882  141.4851  169.0780 C.3     1  UNL1        0.0005
      5 C         143.6992  141.7326  170.0551 C.3     1  UNL1        0.0000
      6 C         143.6958  142.3411  168.5387 C.3     1  UNL1        0.0003
      7 C         143.6235  142.8645  167.1349 C.3     1  UNL1        0.0043
      8 C         142.4437  142.5320  166.2703 C.3     1  UNL1        0.0220
      9 C         142.3714  143.0555  164.8664 C.ar    1  UNL1       -0.0263
     10 C         143.4789  143.9114  164.3272 C.ar    1  UNL1       -0.0015
     11 C         143.4067  144.4348  162.9234 C.ar    1  UNL1        0.0366
     12 C         142.2268  144.1024  162.0588 C.ar    1  UNL1        0.1382
     13 C         141.1193  143.2465  162.5980 C.ar    1  UNL1        0.0323
     14 C         141.1916  142.7231  164.0018 C.ar    1  UNL1       -0.0231
     15 C         140.0841  141.8671  164.5411 C.3     1  UNL1        0.0261
     16 C         140.1564  141.3437  165.9449 C.3     1  UNL1        0.0050
     17 C         141.3362  141.6762  166.8095 C.3     1  UNL1        0.0048
     18 C         141.4084  141.1527  168.2134 C.3     1  UNL1        0.0089
     19 N         139.0437  139.2023  167.1392 N.am    1  UNL1       -0.3043
     20 C         139.1686  139.7303  168.5376 C.2     1  UNL1        0.2220
     21 O         137.9867  139.6960  169.4605 O.2     1  UNL1       -0.2751
     22 H         139.8195  139.2248  166.5334 H       1  UNL1        0.1494
     23 C         137.4341  137.1832  166.8531 C.3     1  UNL1        0.0230
     24 C         137.7369  138.6400  166.6637 C.3     1  UNL1        0.0894
     25 O         142.1546  144.6258  160.6549 O.3     1  UNL1       -0.4754
     26 C         142.3522  143.6943  159.4960 C.3     1  UNL1        0.2068
     27 C         143.4505  142.6732  159.5333 C.3     1  UNL1        0.0646
     28 C         143.1503  141.2637  159.9494 C.3     1  UNL1        0.0759
     29 N         143.4951  140.8009  161.3339 N.3     1  UNL1       -0.2738
     30 C         144.7510  141.1286  162.0859 C.3     1  UNL1        0.0721
     31 C         144.6767  140.4593  163.4262 C.3     1  UNL1        0.0187
     32 C         143.3749  139.7179  163.5026 C.3     1  UNL1        0.0174
     33 C         142.6447  139.9290  162.2094 C.3     1  UNL1        0.0576
     34 C         141.3001  139.3670  161.8543 C.3     1  UNL1        0.0173
@<TRIPOS>BOND
     1    23    24    1
     2    24    19    1
     3    19    20   am
     4    20    21    2
     5     1    20    1
     6     1     2    1
     7     2     3    1
     8     3     4    1
     9     4     5    1
    10     4     6    1
    11     6     7    1
    12     8     7    1
    13     8     9    1
    14     9    10   ar
    15    10    11   ar
    16    11    12   ar
    17    12    25    1
    18    25    26    1
    19    26    27    1
    20    27    28    1
    21    28    29    1
    22    29    30    1
    23    30    31    1
    24    31    32    1
    25    32    33    1
    26    33    34    1
    27    12    13   ar
    28    13    14   ar
    29    14    15    1
    30    15    16    1
    31    17    16    1
    32    17    18    1
    33    18     1    1
    34    18     4    1
    35    17     8    1
    36    14     9   ar
    37    33    29    1
    38    19    22    1
@<TRIPOS>MOLECULE
*****
 34 38 0 0 0
SMALL
GASTEIGER

@<TRIPOS>ATOM
      1 C         140.0674  140.5716  168.0344 C.3     1  UNL1        0.0765
      2 C         138.9069  140.1225  168.8719 C.3     1  UNL1        0.0091
      3 C         138.1285  139.1126  168.0817 C.3     1  UNL1        0.0005
      4 C         138.8080  138.9377  166.7560 C.3     1  UNL1        0.0005
      5 C         137.5822  138.0907  166.9298 C.3     1  UNL1        0.0000
      6 C         138.4903  138.0737  165.5716 C.3     1  UNL1        0.0003
      7 C         139.3711  138.1115  164.3580 C.3     1  UNL1        0.0043
      8 C         140.5694  139.0133  164.3288 C.3     1  UNL1        0.0220
      9 C         141.4502  139.0510  163.1151 C.ar    1  UNL1       -0.0263
     10 C         141.1325  138.1871  161.9307 C.ar    1  UNL1       -0.0015
     11 C         142.0132  138.2249  160.7171 C.ar    1  UNL1        0.0366
     12 C         143.2116  139.1267  160.6879 C.ar    1  UNL1        0.1382
     13 C         143.5292  139.9906  161.8722 C.ar    1  UNL1        0.0323
     14 C         142.6485  139.9527  163.0858 C.ar    1  UNL1       -0.0231
     15 C         142.9661  140.8167  164.2703 C.3     1  UNL1        0.0261
     16 C         142.0854  140.7789  165.4839 C.3     1  UNL1        0.0050
     17 C         140.8871  139.8772  165.5131 C.3     1  UNL1        0.0048
     18 C         140.0063  139.8394  166.7268 C.3     1  UNL1        0.0089
     19 N         142.3839  141.1204  169.0752 N.am    1  UNL1       -0.3043
     20 C         141.1067  141.5766  168.4345 C.2     1  UNL1        0.2220
     21 O         140.8686  143.0379  168.1938 O.2     1  UNL1       -0.2751
     22 H         142.5402  140.1613  169.2332 H       1  UNL1        0.1494
     23 C         143.1417  143.0933  170.5861 C.3     1  UNL1        0.0230
     24 C         143.4230  142.1254  169.4752 C.3     1  UNL1        0.0894
     25 O         144.0923  139.1644  159.4742 O.3     1  UNL1       -0.4754
     26 C         143.8259  140.1606  158.3849 C.3     1  UNL1        0.2068
     27 C         143.5852  141.6009  158.7282 C.3     1  UNL1        0.0646
     28 C         142.2001  142.1704  158.6447 C.3     1  UNL1        0.0759
     29 N         141.2852  142.0944  159.8309 N.3     1  UNL1       -0.2738
     30 C         140.0623  141.2336  159.9476 C.3     1  UNL1        0.0721
     31 C         139.4539  141.4731  161.2975 C.3     1  UNL1        0.0187
     32 C         140.3008  142.4820  162.0152 C.3     1  UNL1        0.0174
     33 C         141.4325  142.8660  161.1088 C.3     1  UNL1        0.0576
     34 C         142.5206  143.8489  161.4248 C.3     1  UNL1        0.0173
@<TRIPOS>BOND
     1    23    24    1
     2    24    19    1
     3    19    20   am
     4    20    21    2
     5     1    20    1
     6     1     2    1
     7     2     3    1
     8     3     4    1
     9     4     5    1
    10     4     6    1
    11     6     7    1
    12     8     7    1
    13     8     9    1
    14     9    10   ar
    15    10    11   ar
    16    11    12   ar
    17    12    25    1
    18    25    26    1
    19    26    27    1
    20    27    28    1
    21    28    29    1
    22    29    30    1
    23    30    31    1
    24    31    32    1
    25    32    33    1
    26    33    34    1
    27    12    13   ar
    28    13    14   ar
    29    14    15    1
    30    15    16    1
    31    17    16    1
    32    17    18    1
    33    18     1    1
    34    18     4    1
    35    17     8    1
    36    14     9   ar
    37    33    29    1
    38    19    22    1
@<TRIPOS>MOLECULE
*****
 34 38 0 0 0
SMALL
GASTEIGER

@<TRIPOS>ATOM
      1 C         140.1483  140.6000  169.7313 C.3     1  UNL1        0.0765
      2 C         140.8500  140.9062  171.0212 C.3     1  UNL1        0.0091
      3 C         142.1113  141.6505  170.6973 C.3     1  UNL1        0.0005
      4 C         142.1892  141.8043  169.2073 C.3     1  UNL1        0.0005
      5 C         143.3461  142.4111  169.9445 C.3     1  UNL1        0.0000
      6 C         143.2081  142.4518  168.3169 C.3     1  UNL1        0.0003
      7 C         143.0137  142.4499  166.8296 C.3     1  UNL1        0.0043
      8 C         141.8005  141.8006  166.2326 C.3     1  UNL1        0.0220
      9 C         141.6061  141.7988  164.7451 C.ar    1  UNL1       -0.0263
     10 C         142.6250  142.4461  163.8549 C.ar    1  UNL1       -0.0015
     11 C         142.4307  142.4443  162.3675 C.ar    1  UNL1        0.0366
     12 C         141.2174  141.7950  161.7705 C.ar    1  UNL1        0.1382
     13 C         140.1985  141.1476  162.6608 C.ar    1  UNL1        0.0323
     14 C         140.3929  141.1495  164.1481 C.ar    1  UNL1       -0.0231
     15 C         139.3739  140.5021  165.0385 C.3     1  UNL1        0.0261
     16 C         139.5683  140.5039  166.5258 C.3     1  UNL1        0.0050
     17 C         140.7816  141.1532  167.1229 C.3     1  UNL1        0.0048
     18 C         140.9759  141.1551  168.6103 C.3     1  UNL1        0.0089
     19 N         137.9065  139.7740  170.7523 N.am    1  UNL1       -0.3043
     20 C         138.8472  139.8673  169.5877 C.2     1  UNL1        0.2220
     21 O         138.4870  139.2279  168.2795 O.2     1  UNL1       -0.2751
     22 H         138.1429  140.1936  171.6110 H       1  UNL1        0.1494
     23 C         135.7926  138.7109  171.8253 C.3     1  UNL1        0.0230
     24 C         136.6055  139.0413  170.6087 C.3     1  UNL1        0.0894
     25 O         141.0231  141.7931  160.2831 O.3     1  UNL1       -0.4754
     26 C         141.1425  140.5117  159.5127 C.3     1  UNL1        0.2068
     27 C         142.3194  139.6089  159.7364 C.3     1  UNL1        0.0646
     28 C         142.2067  138.4501  160.6821 C.3     1  UNL1        0.0759
     29 N         142.7260  138.5729  162.0840 N.3     1  UNL1       -0.2738
     30 C         144.0079  139.2349  162.4945 C.3     1  UNL1        0.0721
     31 C         144.1288  139.1264  163.9857 C.3     1  UNL1        0.0187
     32 C         142.9215  138.3974  164.4967 C.3     1  UNL1        0.0174
     33 C         142.0546  138.0554  163.3214 C.3     1  UNL1        0.0576
     34 C         140.7460  137.3241  163.3743 C.3     1  UNL1        0.0173
@<TRIPOS>BOND
     1    23    24    1
     2    24    19    1
     3    19    20   am
     4    20    21    2
     5     1    20    1
     6     1     2    1
     7     2     3    1
     8     3     4    1
     9     4     5    1
    10     4     6    1
    11     6     7    1
    12     8     7    1
    13     8     9    1
    14     9    10   ar
    15    10    11   ar
    16    11    12   ar
    17    12    25    1
    18    25    26    1
    19    26    27    1
    20    27    28    1
    21    28    29    1
    22    29    30    1
    23    30    31    1
    24    31    32    1
    25    32    33    1
    26    33    34    1
    27    12    13   ar
    28    13    14   ar
    29    14    15    1
    30    15    16    1
    31    17    16    1
    32    17    18    1
    33    18     1    1
    34    18     4    1
    35    17     8    1
    36    14     9   ar
    37    33    29    1
    38    19    22    1
@<TRIPOS>MOLECULE
*****
 34 38 0 0 0
SMALL
GASTEIGER

@<TRIPOS>ATOM
      1 C         141.8252  140.1355  168.1134 C.3     1  UNL1        0.0765
      2 C         142.4880  138.9197  168.6900 C.3     1  UNL1        0.0091
      3 C         143.4050  138.3532  167.6468 C.3     1  UNL1        0.0005
      4 C         143.3088  139.2187  166.4256 C.3     1  UNL1        0.0005
      5 C         144.2573  138.0655  166.2828 C.3     1  UNL1        0.0000
      6 C         143.9842  139.1462  165.0882 C.3     1  UNL1        0.0003
      7 C         143.6831  140.1753  164.0392 C.3     1  UNL1        0.0043
      8 C         142.7067  141.2769  164.3276 C.3     1  UNL1        0.0220
      9 C         142.4057  142.3059  163.2785 C.ar    1  UNL1       -0.0263
     10 C         143.0811  142.2334  161.9412 C.ar    1  UNL1       -0.0015
     11 C         142.7800  143.2625  160.8922 C.ar    1  UNL1        0.0366
     12 C         141.8037  144.3640  161.1806 C.ar    1  UNL1        0.1382
     13 C         141.1283  144.4366  162.5180 C.ar    1  UNL1        0.0323
     14 C         141.4293  143.4075  163.5669 C.ar    1  UNL1       -0.0231
     15 C         140.7540  143.4800  164.9044 C.3     1  UNL1        0.0261
     16 C         141.0550  142.4510  165.9534 C.3     1  UNL1        0.0050
     17 C         142.0314  141.3494  165.6650 C.3     1  UNL1        0.0048
     18 C         142.3324  140.3203  166.7140 C.3     1  UNL1        0.0089
     19 N         141.3036  142.1375  169.6852 N.am    1  UNL1       -0.3043
     20 C         140.8298  141.0125  168.8135 C.2     1  UNL1        0.2220
     21 O         139.3604  140.7645  168.6419 O.2     1  UNL1       -0.2751
     22 H         142.2680  142.3003  169.7979 H       1  UNL1        0.1494
     23 C         140.2098  144.4685  170.0306 C.3     1  UNL1        0.0230
     24 C         140.3082  143.0144  170.3853 C.3     1  UNL1        0.0894
     25 O         141.5026  145.3931  160.1315 O.3     1  UNL1       -0.4754
     26 C         140.3419  145.1988  159.2015 C.3     1  UNL1        0.2068
     27 C         140.1304  143.8727  158.5330 C.3     1  UNL1        0.0646
     28 C         138.9525  143.0231  158.9081 C.3     1  UNL1        0.0759
     29 N         138.9269  142.3195  160.2326 N.3     1  UNL1       -0.2738
     30 C         138.1003  142.7092  161.4221 C.3     1  UNL1        0.0721
     31 C         138.3858  141.7332  162.5248 C.3     1  UNL1        0.0187
     32 C         139.3889  140.7402  162.0167 C.3     1  UNL1        0.0174
     33 C         139.7232  141.1026  160.6000 C.3     1  UNL1        0.0576
     34 C         140.6850  140.3757  159.7076 C.3     1  UNL1        0.0173
@<TRIPOS>BOND
     1    23    24    1
     2    24    19    1
     3    19    20   am
     4    20    21    2
     5     1    20    1
     6     1     2    1
     7     2     3    1
     8     3     4    1
     9     4     5    1
    10     4     6    1
    11     6     7    1
    12     8     7    1
    13     8     9    1
    14     9    10   ar
    15    10    11   ar
    16    11    12   ar
    17    12    25    1
    18    25    26    1
    19    26    27    1
    20    27    28    1
    21    28    29    1
    22    29    30    1
    23    30    31    1
    24    31    32    1
    25    32    33    1
    26    33    34    1
    27    12    13   ar
    28    13    14   ar
    29    14    15    1
    30    15    16    1
    31    17    16    1
    32    17    18    1
    33    18     1    1
    34    18     4    1
    35    17     8    1
    36    14     9   ar
    37    33    29    1
    38    19    22    1
@<TRIPOS>MOLECULE
*****
 34 38 0 0 0
SMALL
GASTEIGER

@<TRIPOS>ATOM
      1 C         141.4928  142.4808  165.3675 C.3     1  UNL1        0.0765
      2 C         140.6456  142.7628  166.5728 C.3     1  UNL1        0.0091
      3 C         139.6047  143.7698  166.1823 C.3     1  UNL1        0.0005
      4 C         139.8085  144.1100  164.7358 C.3     1  UNL1        0.0005
      5 C         138.6652  144.8379  165.3784 C.3     1  UNL1        0.0000
      6 C         139.0823  145.0424  163.8120 C.3     1  UNL1        0.0003
      7 C         139.5230  145.1781  162.3846 C.3     1  UNL1        0.0043
      8 C         140.6899  144.3814  161.8810 C.3     1  UNL1        0.0220
      9 C         141.1306  144.5171  160.4536 C.ar    1  UNL1       -0.0263
     10 C         140.4044  145.4495  159.5299 C.ar    1  UNL1       -0.0015
     11 C         140.8451  145.5851  158.1025 C.ar    1  UNL1        0.0366
     12 C         142.0120  144.7885  157.5989 C.ar    1  UNL1        0.1382
     13 C         142.7382  143.8561  158.5227 C.ar    1  UNL1        0.0323
     14 C         142.2975  143.7205  159.9500 C.ar    1  UNL1       -0.0231
     15 C         143.0237  142.7881  160.8738 C.3     1  UNL1        0.0261
     16 C         142.5830  142.6524  162.3011 C.3     1  UNL1        0.0050
     17 C         141.4161  143.4491  162.8047 C.3     1  UNL1        0.0048
     18 C         140.9754  143.3134  164.2322 C.3     1  UNL1        0.0089
     19 N         142.4113  140.0540  165.2367 N.am    1  UNL1       -0.3043
     20 C         142.6535  141.5325  165.3080 C.2     1  UNL1        0.2220
     21 O         144.0566  142.0629  165.3200 O.2     1  UNL1       -0.2751
     22 H         141.4905  139.7058  165.2288 H       1  UNL1        0.1494
     23 C         143.8265  138.1597  166.3130 C.3     1  UNL1        0.0230
     24 C         143.5721  139.1058  165.1772 C.3     1  UNL1        0.0894
     25 O         142.4527  144.9242  156.1715 O.3     1  UNL1       -0.4754
     26 C         142.0961  143.8637  155.1724 C.3     1  UNL1        0.2068
     27 C         140.7214  143.2635  155.1742 C.3     1  UNL1        0.0646
     28 C         140.4868  141.9284  155.8165 C.3     1  UNL1        0.0759
     29 N         139.9258  141.8528  157.2056 N.3     1  UNL1       -0.2738
     30 C         138.7254  142.5953  157.7133 C.3     1  UNL1        0.0721
     31 C         138.5244  142.2227  159.1524 C.3     1  UNL1        0.0187
     32 C         139.6006  141.2499  159.5340 C.3     1  UNL1        0.0174
     33 C         140.4667  141.0213  158.3308 C.3     1  UNL1        0.0576
     34 C         141.6635  140.1196  158.2645 C.3     1  UNL1        0.0173
@<TRIPOS>BOND
     1    23    24    1
     2    24    19    1
     3    19    20   am
     4    20    21    2
     5     1    20    1
     6     1     2    1
     7     2     3    1
     8     3     4    1
     9     4     5    1
    10     4     6    1
    11     6     7    1
    12     8     7    1
    13     8     9    1
    14     9    10   ar
    15    10    11   ar
    16    11    12   ar
    17    12    25    1
    18    25    26    1
    19    26    27    1
    20    27    28    1
    21    28    29    1
    22    29    30    1
    23    30    31    1
    24    31    32    1
    25    32    33    1
    26    33    34    1
    27    12    13   ar
    28    13    14   ar
    29    14    15    1
    30    15    16    1
    31    17    16    1
    32    17    18    1
    33    18     1    1
    34    18     4    1
    35    17     8    1
    36    14     9   ar
    37    33    29    1
    38    19    22    1
@<TRIPOS>MOLECULE
*****
 34 38 0 0 0
SMALL
GASTEIGER

@<TRIPOS>ATOM
      1 C         140.3130  141.8866  166.1944 C.3     1  UNL1        0.0765
      2 C         140.0549  143.1622  166.9402 C.3     1  UNL1        0.0091
      3 C         139.4550  144.1468  165.9807 C.3     1  UNL1        0.0005
      4 C         139.3424  143.4798  164.6420 C.3     1  UNL1        0.0005
      5 C         138.8454  144.8949  164.6622 C.3     1  UNL1        0.0000
      6 C         138.8255  143.9639  163.3196 C.3     1  UNL1        0.0003
      7 C         138.8389  143.0511  162.1295 C.3     1  UNL1        0.0043
      8 C         139.3691  141.6542  162.2616 C.3     1  UNL1        0.0220
      9 C         139.3825  140.7413  161.0713 C.ar    1  UNL1       -0.0263
     10 C         138.8656  141.2254  159.7490 C.ar    1  UNL1       -0.0015
     11 C         138.8789  140.3126  158.5589 C.ar    1  UNL1        0.0366
     12 C         139.4092  138.9157  158.6910 C.ar    1  UNL1        0.1382
     13 C         139.9261  138.4316  160.0132 C.ar    1  UNL1        0.0323
     14 C         139.9128  139.3444  161.2034 C.ar    1  UNL1       -0.0231
     15 C         140.4297  138.8604  162.5257 C.3     1  UNL1        0.0261
     16 C         140.4163  139.7732  163.7159 C.3     1  UNL1        0.0050
     17 C         139.8860  141.1701  163.5838 C.3     1  UNL1        0.0048
     18 C         139.8727  142.0829  164.7741 C.3     1  UNL1        0.0089
     19 N         142.3791  140.3757  166.6402 N.am    1  UNL1       -0.3043
     20 C         140.9072  140.6346  166.7683 C.2     1  UNL1        0.2220
     21 O         140.0294  139.6414  167.4705 O.2     1  UNL1       -0.2751
     22 H         142.9553  141.0276  166.1793 H       1  UNL1        0.1494
     23 C         143.7015  138.1621  166.3226 C.3     1  UNL1        0.0230
     24 C         142.9732  139.1237  167.2141 C.3     1  UNL1        0.0894
     25 O         139.4226  138.0029  157.5007 O.3     1  UNL1       -0.4754
     26 C         140.7268  137.5059  156.9513 C.3     1  UNL1        0.2068
     27 C         141.8149  138.4790  156.6061 C.3     1  UNL1        0.0646
     28 C         142.9583  138.6926  157.5530 C.3     1  UNL1        0.0759
     29 N         142.9086  139.8137  158.5483 N.3     1  UNL1       -0.2738
     30 C         142.4149  141.2054  158.2847 C.3     1  UNL1        0.0721
     31 C         142.5449  141.9918  159.5554 C.3     1  UNL1        0.0187
     32 C         143.1190  141.0860  160.6043 C.3     1  UNL1        0.0174
     33 C         143.3437  139.7399  159.9819 C.3     1  UNL1        0.0576
     34 C         143.9050  138.5321  160.6719 C.3     1  UNL1        0.0173
@<TRIPOS>BOND
     1    23    24    1
     2    24    19    1
     3    19    20   am
     4    20    21    2
     5     1    20    1
     6     1     2    1
     7     2     3    1
     8     3     4    1
     9     4     5    1
    10     4     6    1
    11     6     7    1
    12     8     7    1
    13     8     9    1
    14     9    10   ar
    15    10    11   ar
    16    11    12   ar
    17    12    25    1
    18    25    26    1
    19    26    27    1
    20    27    28    1
    21    28    29    1
    22    29    30    1
    23    30    31    1
    24    31    32    1
    25    32    33    1
    26    33    34    1
    27    12    13   ar
    28    13    14   ar
    29    14    15    1
    30    15    16    1
    31    17    16    1
    32    17    18    1
    33    18     1    1
    34    18     4    1
    35    17     8    1
    36    14     9   ar
    37    33    29    1
    38    19    22    1
