@<TRIPOS>MOLECULE
*****
 31 35 0 0 0
SMALL
GASTEIGER

@<TRIPOS>ATOM
      1 C         140.5540  137.6382  163.9746 C.3     1  UNL1        0.0545
      2 C         139.1342  137.5193  164.4437 C.3     1  UNL1        0.0162
      3 C         138.9886  138.3374  165.6925 C.3     1  UNL1        0.0095
      4 C         138.0212  138.7696  166.7542 C.3     1  UNL1        0.0005
      5 C         138.7531  139.6612  167.7131 C.3     1  UNL1        0.0005
      6 C         140.1729  139.7800  167.2440 C.3     1  UNL1        0.0087
      7 C         140.3185  138.9619  165.9952 C.3     1  UNL1        0.0704
      8 C         141.2859  138.5298  164.9334 C.3     1  UNL1        0.0243
      9 C         141.6483  139.5864  166.2978 C.2     1  UNL1        0.2250
     10 O         142.6331  138.8674  167.1714 O.2     1  UNL1       -0.2749
     11 N         141.9933  140.9300  165.7269 N.am    1  UNL1       -0.2750
     12 C         143.3231  141.5544  166.0295 C.3     1  UNL1        0.1000
     13 C         143.6681  142.8979  165.4586 C.3     1  UNL1        0.0670
     14 C         142.6833  143.6169  164.5850 C.ar    1  UNL1        0.0584
     15 N         143.0283  144.9605  164.0141 N.ar    1  UNL1       -0.2478
     16 C         142.0435  145.6795  163.1405 C.ar    1  UNL1        0.1051
     17 C         140.7136  145.0549  162.8378 C.ar    1  UNL1        0.0534
     18 BR        139.7288  145.7739  161.9642 Br      1  UNL1       -0.0474
     19 C         140.3687  143.7114  163.4087 C.ar    1  UNL1        0.0068
     20 C         141.3535  142.9924  164.2823 C.ar    1  UNL1        0.0118
     21 C         141.0085  141.6490  164.8533 C.3     1  UNL1        0.1213
     22 N         141.1392  136.9809  162.7598 N.3     1  UNL1       -0.2975
     23 H         141.8246  136.3030  163.0932 H       1  UNL1        0.1232
     24 C         141.0294  138.4057  160.5901 C.3     1  UNL1        0.1591
     25 C         141.7142  139.2355  159.5448 C.3     1  UNL1        0.1729
     26 O         143.1935  139.4703  159.6241 O.3     1  UNL1       -0.3511
     27 C         143.9882  138.8753  160.7487 C.3     1  UNL1        0.1437
     28 C         143.3034  138.0455  161.7939 C.3     1  UNL1        0.0503
     29 C         141.8240  137.8107  161.7146 C.3     1  UNL1        0.0865
     30 C         138.6002  139.1576  161.1225 C.3     1  UNL1        0.1742
     31 O         139.5501  138.1709  160.5108 O.3     1  UNL1       -0.3496
@<TRIPOS>BOND
     1    30    31    1
     2    31    24    1
     3    24    25    1
     4    25    26    1
     5    26    27    1
     6    27    28    1
     7    28    29    1
     8    29    22    1
     9     1    22    1
    10     1     2    1
    11     3     2    1
    12     3     4    1
    13     4     5    1
    14     5     6    1
    15     6     7    1
    16     7     9    1
    17     9    10    2
    18     9    11   am
    19    11    12    1
    20    12    13    1
    21    13    14    1
    22    14    15   ar
    23    15    16   ar
    24    16    17   ar
    25    17    18    1
    26    17    19   ar
    27    19    20   ar
    28    20    21    1
    29     7     8    1
    30    29    24    1
    31     8     1    1
    32     7     3    1
    33    21    11    1
    34    20    14   ar
    35    22    23    1
@<TRIPOS>MOLECULE
*****
 31 35 0 0 0
SMALL
GASTEIGER

@<TRIPOS>ATOM
      1 C         141.1426  141.9608  161.9927 C.3     1  UNL1        0.0545
      2 C         140.8638  143.4202  161.7870 C.3     1  UNL1        0.0162
      3 C         139.5580  143.7408  162.4518 C.3     1  UNL1        0.0095
      4 C         138.5786  144.8409  162.7356 C.3     1  UNL1        0.0005
      5 C         137.4450  144.2595  163.5275 C.3     1  UNL1        0.0005
      6 C         137.7238  142.8001  163.7332 C.3     1  UNL1        0.0087
      7 C         139.0297  142.4795  163.0684 C.3     1  UNL1        0.0704
      8 C         140.0091  141.3794  162.7846 C.3     1  UNL1        0.0243
      9 C         138.5015  141.2182  163.6849 C.2     1  UNL1        0.2250
     10 O         137.6056  140.3137  162.8916 O.2     1  UNL1       -0.2749
     11 N         138.8691  140.8613  165.0947 N.am    1  UNL1       -0.2750
     12 C         138.3409  139.6001  165.7112 C.3     1  UNL1        0.1000
     13 C         138.7086  139.2433  167.1210 C.3     1  UNL1        0.0670
     14 C         139.6045  140.1478  167.9142 C.ar    1  UNL1        0.0584
     15 N         139.9722  139.7909  169.3241 N.ar    1  UNL1       -0.2478
     16 C         140.8681  140.6954  170.1173 C.ar    1  UNL1        0.1051
     17 C         141.3963  141.9568  169.5008 C.ar    1  UNL1        0.0534
     18 BR        142.2922  142.8613  170.2940 Br      1  UNL1       -0.0474
     19 C         141.0286  142.3136  168.0910 C.ar    1  UNL1        0.0068
     20 C         140.1327  141.4091  167.2977 C.ar    1  UNL1        0.0118
     21 C         139.7650  141.7658  165.8880 C.3     1  UNL1        0.1213
     22 N         142.3441  141.2138  161.4940 N.3     1  UNL1       -0.2975
     23 H         142.0063  140.3239  161.1274 H       1  UNL1        0.1232
     24 C         144.5631  141.8997  162.6582 C.3     1  UNL1        0.1591
     25 C         145.6908  141.5821  163.5949 C.3     1  UNL1        0.1729
     26 O         145.7272  140.2609  164.3041 O.3     1  UNL1       -0.3511
     27 C         144.6358  139.2572  164.0766 C.3     1  UNL1        0.1437
     28 C         143.5081  139.5748  163.1399 C.3     1  UNL1        0.0503
     29 C         143.4718  140.8961  162.4307 C.3     1  UNL1        0.0865
     30 C         144.1708  144.4676  162.7034 C.3     1  UNL1        0.1742
     31 O         144.5267  143.2209  161.9489 O.3     1  UNL1       -0.3496
@<TRIPOS>BOND
     1    30    31    1
     2    31    24    1
     3    24    25    1
     4    25    26    1
     5    26    27    1
     6    27    28    1
     7    28    29    1
     8    29    22    1
     9     1    22    1
    10     1     2    1
    11     3     2    1
    12     3     4    1
    13     4     5    1
    14     5     6    1
    15     6     7    1
    16     7     9    1
    17     9    10    2
    18     9    11   am
    19    11    12    1
    20    12    13    1
    21    13    14    1
    22    14    15   ar
    23    15    16   ar
    24    16    17   ar
    25    17    18    1
    26    17    19   ar
    27    19    20   ar
    28    20    21    1
    29     7     8    1
    30    29    24    1
    31     8     1    1
    32     7     3    1
    33    21    11    1
    34    20    14   ar
    35    22    23    1
@<TRIPOS>MOLECULE
*****
 31 35 0 0 0
SMALL
GASTEIGER

@<TRIPOS>ATOM
      1 C         139.2615  138.3629  165.1735 C.3     1  UNL1        0.0545
      2 C         138.4132  138.7337  166.3536 C.3     1  UNL1        0.0162
      3 C         139.2674  139.5074  167.3137 C.3     1  UNL1        0.0095
      4 C         139.2711  140.2148  168.6364 C.3     1  UNL1        0.0005
      5 C         140.6497  140.7592  168.8670 C.3     1  UNL1        0.0005
      6 C         141.4980  140.3884  167.6869 C.3     1  UNL1        0.0087
      7 C         140.6437  139.6147  166.7268 C.3     1  UNL1        0.0704
      8 C         140.6400  138.9073  165.4041 C.3     1  UNL1        0.0243
      9 C         142.0200  139.7220  166.1400 C.2     1  UNL1        0.2250
     10 O         143.0874  138.7507  166.5488 O.2     1  UNL1       -0.2749
     11 N         142.3288  140.8005  165.1443 N.am    1  UNL1       -0.2750
     12 C         143.7050  140.9078  164.5574 C.3     1  UNL1        0.1000
     13 C         144.0137  141.9863  163.5617 C.3     1  UNL1        0.0670
     14 C         142.9463  142.9576  163.1529 C.ar    1  UNL1        0.0584
     15 N         143.2551  144.0362  162.1572 N.ar    1  UNL1       -0.2478
     16 C         142.1876  145.0074  161.7483 C.ar    1  UNL1        0.1051
     17 C         140.8113  144.9001  162.3352 C.ar    1  UNL1        0.0534
     18 BR        139.7438  145.8713  161.9264 Br      1  UNL1       -0.0474
     19 C         140.5025  143.8216  163.3309 C.ar    1  UNL1        0.0068
     20 C         141.5700  142.8503  163.7397 C.ar    1  UNL1        0.0118
     21 C         141.2613  141.7718  164.7354 C.3     1  UNL1        0.1213
     22 N         138.8104  137.5842  163.9733 N.3     1  UNL1       -0.2975
     23 H         139.3833  136.7410  163.9370 H       1  UNL1        0.1232
     24 C         140.0994  138.0488  161.7659 C.3     1  UNL1        0.1591
     25 C         140.1584  138.6714  160.4024 C.3     1  UNL1        0.1729
     26 O         138.9875  139.4518  159.8830 O.3     1  UNL1       -0.3511
     27 C         137.7575  139.6098  160.7270 C.3     1  UNL1        0.1437
     28 C         137.6985  138.9873  162.0904 C.3     1  UNL1        0.0503
     29 C         138.8695  138.2068  162.6098 C.3     1  UNL1        0.0865
     30 C         142.6092  137.9298  162.4269 C.3     1  UNL1        0.1742
     31 O         141.2703  137.2684  162.2853 O.3     1  UNL1       -0.3496
@<TRIPOS>BOND
     1    30    31    1
     2    31    24    1
     3    24    25    1
     4    25    26    1
     5    26    27    1
     6    27    28    1
     7    28    29    1
     8    29    22    1
     9     1    22    1
    10     1     2    1
    11     3     2    1
    12     3     4    1
    13     4     5    1
    14     5     6    1
    15     6     7    1
    16     7     9    1
    17     9    10    2
    18     9    11   am
    19    11    12    1
    20    12    13    1
    21    13    14    1
    22    14    15   ar
    23    15    16   ar
    24    16    17   ar
    25    17    18    1
    26    17    19   ar
    27    19    20   ar
    28    20    21    1
    29     7     8    1
    30    29    24    1
    31     8     1    1
    32     7     3    1
    33    21    11    1
    34    20    14   ar
    35    22    23    1
@<TRIPOS>MOLECULE
*****
 31 35 0 0 0
SMALL
GASTEIGER

@<TRIPOS>ATOM
      1 C         142.4077  143.0757  163.0647 C.3     1  UNL1        0.0545
      2 C         143.8957  143.1271  163.2466 C.3     1  UNL1        0.0162
      3 C         144.3677  141.7472  163.5976 C.3     1  UNL1        0.0095
      4 C         145.5791  140.9262  163.9270 C.3     1  UNL1        0.0005
      5 C         145.1314  139.5145  164.1655 C.3     1  UNL1        0.0005
      6 C         143.6434  139.4631  163.9835 C.3     1  UNL1        0.0087
      7 C         143.1714  140.8430  163.6326 C.3     1  UNL1        0.0704
      8 C         141.9601  141.6641  163.3032 C.3     1  UNL1        0.0243
      9 C         141.9751  139.9388  163.6675 C.2     1  UNL1        0.2250
     10 O         141.6184  139.1199  162.4625 O.2     1  UNL1       -0.2749
     11 N         141.1354  139.8535  164.9076 N.am    1  UNL1       -0.2750
     12 C         139.9391  138.9494  164.9426 C.3     1  UNL1        0.1000
     13 C         139.0994  138.8641  166.1826 C.3     1  UNL1        0.0670
     14 C         139.4562  139.6830  167.3877 C.ar    1  UNL1        0.0584
     15 N         138.6165  139.5977  168.6278 N.ar    1  UNL1       -0.2478
     16 C         138.9732  140.4166  169.8328 C.ar    1  UNL1        0.1051
     17 C         140.1696  141.3208  169.7978 C.ar    1  UNL1        0.0534
     18 BR        140.5263  142.1397  171.0029 Br      1  UNL1       -0.0474
     19 C         141.0092  141.4060  168.5578 C.ar    1  UNL1        0.0068
     20 C         140.6525  140.5871  167.3527 C.ar    1  UNL1        0.0118
     21 C         141.4921  140.6724  166.1127 C.3     1  UNL1        0.1213
     22 N         141.5227  144.2328  162.7070 N.3     1  UNL1       -0.2975
     23 H         142.0290  145.0807  162.9621 H       1  UNL1        0.1232
     24 C         138.9377  144.1648  162.4555 C.3     1  UNL1        0.1591
     25 C         137.5702  144.2783  163.0612 C.3     1  UNL1        0.1729
     26 O         137.4200  144.5733  164.5242 O.3     1  UNL1       -0.3511
     27 C         138.6375  144.7548  165.3816 C.3     1  UNL1        0.1437
     28 C         140.0050  144.6413  164.7758 C.3     1  UNL1        0.0503
     29 C         140.1551  144.3463  163.3127 C.3     1  UNL1        0.0865
     30 C         138.7170  142.5182  160.4580 C.3     1  UNL1        0.1742
     31 O         139.0878  143.8699  160.9925 O.3     1  UNL1       -0.3496
@<TRIPOS>BOND
     1    30    31    1
     2    31    24    1
     3    24    25    1
     4    25    26    1
     5    26    27    1
     6    27    28    1
     7    28    29    1
     8    29    22    1
     9     1    22    1
    10     1     2    1
    11     3     2    1
    12     3     4    1
    13     4     5    1
    14     5     6    1
    15     6     7    1
    16     7     9    1
    17     9    10    2
    18     9    11   am
    19    11    12    1
    20    12    13    1
    21    13    14    1
    22    14    15   ar
    23    15    16   ar
    24    16    17   ar
    25    17    18    1
    26    17    19   ar
    27    19    20   ar
    28    20    21    1
    29     7     8    1
    30    29    24    1
    31     8     1    1
    32     7     3    1
    33    21    11    1
    34    20    14   ar
    35    22    23    1
@<TRIPOS>MOLECULE
*****
 31 35 0 0 0
SMALL
GASTEIGER

@<TRIPOS>ATOM
      1 C         139.2557  138.7479  165.9497 C.3     1  UNL1        0.0545
      2 C         138.3835  139.1050  167.1167 C.3     1  UNL1        0.0162
      3 C         139.2265  139.8368  168.1186 C.3     1  UNL1        0.0095
      4 C         139.2085  140.5097  169.4591 C.3     1  UNL1        0.0005
      5 C         140.5905  141.0208  169.7398 C.3     1  UNL1        0.0005
      6 C         141.4627  140.6637  168.5729 C.3     1  UNL1        0.0087
      7 C         140.6197  139.9320  167.5709 C.3     1  UNL1        0.0704
      8 C         140.6377  139.2590  166.2305 C.3     1  UNL1        0.0243
      9 C         142.0129  140.0271  167.0232 C.2     1  UNL1        0.2250
     10 O         143.0911  139.1309  167.5561 O.2     1  UNL1       -0.2749
     11 N         142.3278  141.0186  165.9425 N.am    1  UNL1       -0.2750
     12 C         143.7209  141.1138  165.3948 C.3     1  UNL1        0.1000
     13 C         144.0358  142.1052  164.3141 C.3     1  UNL1        0.0670
     14 C         142.9575  143.0015  163.7812 C.ar    1  UNL1        0.0584
     15 N         143.2725  143.9930  162.7005 N.ar    1  UNL1       -0.2478
     16 C         142.1942  144.8892  162.1675 C.ar    1  UNL1        0.1051
     17 C         140.8010  144.7940  162.7153 C.ar    1  UNL1        0.0534
     18 BR        139.7227  145.6903  162.1824 Br      1  UNL1       -0.0474
     19 C         140.4861  143.8026  163.7960 C.ar    1  UNL1        0.0068
     20 C         141.5644  142.9063  164.3289 C.ar    1  UNL1        0.0118
     21 C         141.2495  141.9149  165.4096 C.3     1  UNL1        0.1213
     22 N         138.8220  138.0094  164.7182 N.3     1  UNL1       -0.2975
     23 H         138.8998  137.0144  164.9288 H       1  UNL1        0.1232
     24 C         138.9773  139.1953  162.4118 C.3     1  UNL1        0.1591
     25 C         139.6917  139.4199  161.1121 C.3     1  UNL1        0.1729
     26 O         140.9650  138.6832  160.8190 O.3     1  UNL1       -0.3511
     27 C         141.5240  137.7219  161.8257 C.3     1  UNL1        0.1437
     28 C         140.8097  137.4973  163.1254 C.3     1  UNL1        0.0503
     29 C         139.5363  138.2340  163.4185 C.3     1  UNL1        0.0865
     30 C         137.7449  141.2335  163.4496 C.3     1  UNL1        0.1742
     31 O         137.7040  139.9320  162.7049 O.3     1  UNL1       -0.3496
@<TRIPOS>BOND
     1    30    31    1
     2    31    24    1
     3    24    25    1
     4    25    26    1
     5    26    27    1
     6    27    28    1
     7    28    29    1
     8    29    22    1
     9     1    22    1
    10     1     2    1
    11     3     2    1
    12     3     4    1
    13     4     5    1
    14     5     6    1
    15     6     7    1
    16     7     9    1
    17     9    10    2
    18     9    11   am
    19    11    12    1
    20    12    13    1
    21    13    14    1
    22    14    15   ar
    23    15    16   ar
    24    16    17   ar
    25    17    18    1
    26    17    19   ar
    27    19    20   ar
    28    20    21    1
    29     7     8    1
    30    29    24    1
    31     8     1    1
    32     7     3    1
    33    21    11    1
    34    20    14   ar
    35    22    23    1
@<TRIPOS>MOLECULE
*****
 31 35 0 0 0
SMALL
GASTEIGER

@<TRIPOS>ATOM
      1 C         142.7334  139.0113  165.9551 C.3     1  UNL1        0.0545
      2 C         142.7626  139.5641  167.3492 C.3     1  UNL1        0.0162
      3 C         141.3454  139.7551  167.8019 C.3     1  UNL1        0.0095
      4 C         140.4876  140.2148  168.9433 C.3     1  UNL1        0.0005
      5 C         139.0522  140.0642  168.5344 C.3     1  UNL1        0.0005
      6 C         139.0230  139.5114  167.1403 C.3     1  UNL1        0.0087
      7 C         140.4402  139.3204  166.6876 C.3     1  UNL1        0.0704
      8 C         141.2980  138.8607  165.5462 C.3     1  UNL1        0.0243
      9 C         139.5351  138.8857  165.5733 C.2     1  UNL1        0.2250
     10 O         138.9527  137.5033  165.5760 O.2     1  UNL1       -0.2749
     11 N         139.2122  139.8333  164.4562 N.am    1  UNL1       -0.2750
     12 C         138.3071  139.3986  163.3419 C.3     1  UNL1        0.1000
     13 C         137.9843  140.3462  162.2249 C.3     1  UNL1        0.0670
     14 C         138.5667  141.7286  162.2222 C.ar    1  UNL1        0.0584
     15 N         138.2438  142.6762  161.1051 N.ar    1  UNL1       -0.2478
     16 C         138.8262  144.0586  161.1024 C.ar    1  UNL1        0.1051
     17 C         139.7314  144.4933  162.2167 C.ar    1  UNL1        0.0534
     18 BR        140.3137  145.8756  162.2140 Br      1  UNL1       -0.0474
     19 C         140.0541  143.5456  163.3338 C.ar    1  UNL1        0.0068
     20 C         139.4718  142.1633  163.3365 C.ar    1  UNL1        0.0118
     21 C         139.7946  141.2157  164.4535 C.3     1  UNL1        0.1213
     22 N         143.9294  138.6692  165.1169 N.3     1  UNL1       -0.2975
     23 H         144.7306  138.6345  165.7473 H       1  UNL1        0.1232
     24 C         143.9299  139.1813  162.5698 C.3     1  UNL1        0.1591
     25 C         144.3196  140.0657  161.4227 C.3     1  UNL1        0.1729
     26 O         145.0985  141.3225  161.6754 O.3     1  UNL1       -0.3511
     27 C         145.4877  141.6948  163.0754 C.3     1  UNL1        0.1437
     28 C         145.0980  140.8104  164.2226 C.3     1  UNL1        0.0503
     29 C         144.3191  139.5536  163.9698 C.3     1  UNL1        0.0865
     30 C         141.6767  137.9968  162.0500 C.3     1  UNL1        0.1742
     31 O         143.1511  137.9246  162.3171 O.3     1  UNL1       -0.3496
@<TRIPOS>BOND
     1    30    31    1
     2    31    24    1
     3    24    25    1
     4    25    26    1
     5    26    27    1
     6    27    28    1
     7    28    29    1
     8    29    22    1
     9     1    22    1
    10     1     2    1
    11     3     2    1
    12     3     4    1
    13     4     5    1
    14     5     6    1
    15     6     7    1
    16     7     9    1
    17     9    10    2
    18     9    11   am
    19    11    12    1
    20    12    13    1
    21    13    14    1
    22    14    15   ar
    23    15    16   ar
    24    16    17   ar
    25    17    18    1
    26    17    19   ar
    27    19    20   ar
    28    20    21    1
    29     7     8    1
    30    29    24    1
    31     8     1    1
    32     7     3    1
    33    21    11    1
    34    20    14   ar
    35    22    23    1
@<TRIPOS>MOLECULE
*****
 31 35 0 0 0
SMALL
GASTEIGER

@<TRIPOS>ATOM
      1 C         140.5726  142.4786  166.4575 C.3     1  UNL1        0.0545
      2 C         139.8503  143.6629  165.8869 C.3     1  UNL1        0.0162
      3 C         138.8572  143.1599  164.8816 C.3     1  UNL1        0.0095
      4 C         137.7970  143.5810  163.9076 C.3     1  UNL1        0.0005
      5 C         137.2503  142.3460  163.2549 C.3     1  UNL1        0.0005
      6 C         137.9726  141.1617  163.8255 C.3     1  UNL1        0.0087
      7 C         138.9657  141.6647  164.8308 C.3     1  UNL1        0.0704
      8 C         140.0259  141.2436  165.8048 C.3     1  UNL1        0.0243
      9 C         139.0743  140.1695  164.7801 C.2     1  UNL1        0.2250
     10 O         138.3250  139.3291  165.7712 O.2     1  UNL1       -0.2749
     11 N         139.9322  139.5147  163.7383 N.am    1  UNL1       -0.2750
     12 C         140.0408  138.0195  163.6876 C.3     1  UNL1        0.1000
     13 C         140.8987  137.3648  162.6458 C.3     1  UNL1        0.0670
     14 C         141.6480  138.2052  161.6548 C.ar    1  UNL1        0.0584
     15 N         142.5059  137.5504  160.6130 N.ar    1  UNL1       -0.2478
     16 C         143.2552  138.3909  159.6219 C.ar    1  UNL1        0.1051
     17 C         143.1466  139.8861  159.6727 C.ar    1  UNL1        0.0534
     18 BR        143.8959  140.7266  158.6816 Br      1  UNL1       -0.0474
     19 C         142.2887  140.5408  160.7144 C.ar    1  UNL1        0.0068
     20 C         141.5394  139.7004  161.7055 C.ar    1  UNL1        0.0118
     21 C         140.6815  140.3551  162.7473 C.3     1  UNL1        0.1213
     22 N         141.6522  142.5217  167.4981 N.3     1  UNL1       -0.2975
     23 H         142.3145  141.7815  167.2661 H       1  UNL1        0.1232
     24 C         142.0161  141.3238  169.7747 C.3     1  UNL1        0.1591
     25 C         141.6680  141.1548  171.2239 C.3     1  UNL1        0.1729
     26 O         140.6078  142.0146  171.8458 O.3     1  UNL1       -0.3511
     27 C         139.8957  143.0434  171.0185 C.3     1  UNL1        0.1437
     28 C         140.2439  143.2125  169.5692 C.3     1  UNL1        0.0503
     29 C         141.3041  142.3526  168.9473 C.3     1  UNL1        0.0865
     30 C         142.6876  139.3066  168.2814 C.3     1  UNL1        0.1742
     31 O         143.0763  140.4640  169.1528 O.3     1  UNL1       -0.3496
@<TRIPOS>BOND
     1    30    31    1
     2    31    24    1
     3    24    25    1
     4    25    26    1
     5    26    27    1
     6    27    28    1
     7    28    29    1
     8    29    22    1
     9     1    22    1
    10     1     2    1
    11     3     2    1
    12     3     4    1
    13     4     5    1
    14     5     6    1
    15     6     7    1
    16     7     9    1
    17     9    10    2
    18     9    11   am
    19    11    12    1
    20    12    13    1
    21    13    14    1
    22    14    15   ar
    23    15    16   ar
    24    16    17   ar
    25    17    18    1
    26    17    19   ar
    27    19    20   ar
    28    20    21    1
    29     7     8    1
    30    29    24    1
    31     8     1    1
    32     7     3    1
    33    21    11    1
    34    20    14   ar
    35    22    23    1
@<TRIPOS>MOLECULE
*****
 31 35 0 0 0
SMALL
GASTEIGER

@<TRIPOS>ATOM
      1 C         140.2052  141.8145  161.3593 C.3     1  UNL1        0.0545
      2 C         138.7781  141.3740  161.2204 C.3     1  UNL1        0.0162
      3 C         138.6804  139.9587  161.7077 C.3     1  UNL1        0.0095
      4 C         137.7380  138.8118  161.9230 C.3     1  UNL1        0.0005
      5 C         138.5222  137.6688  162.4962 C.3     1  UNL1        0.0005
      6 C         139.9493  138.1093  162.6351 C.3     1  UNL1        0.0087
      7 C         140.0471  139.5245  162.1478 C.3     1  UNL1        0.0704
      8 C         140.9895  140.6715  161.9324 C.3     1  UNL1        0.0243
      9 C         141.4138  139.0904  162.5878 C.2     1  UNL1        0.2250
     10 O         142.4153  138.6237  161.5734 O.2     1  UNL1       -0.2749
     11 N         141.7790  139.1230  164.0424 N.am    1  UNL1       -0.2750
     12 C         143.1456  138.6889  164.4825 C.3     1  UNL1        0.1000
     13 C         143.5107  138.7215  165.9369 C.3     1  UNL1        0.0670
     14 C         142.5092  139.1883  166.9514 C.ar    1  UNL1        0.0584
     15 N         142.8744  139.2209  168.4059 N.ar    1  UNL1       -0.2478
     16 C         141.8729  139.6876  169.4203 C.ar    1  UNL1        0.1051
     17 C         140.5061  140.1218  168.9802 C.ar    1  UNL1        0.0534
     18 BR        139.5046  140.5885  169.9946 Br      1  UNL1       -0.0474
     19 C         140.1410  140.0892  167.5257 C.ar    1  UNL1        0.0068
     20 C         141.1425  139.6224  166.5113 C.ar    1  UNL1        0.0118
     21 C         140.7774  139.5898  165.0568 C.3     1  UNL1        0.1213
     22 N         140.7521  143.1616  160.9899 N.3     1  UNL1       -0.2975
     23 H         141.2308  143.0500  160.0961 H       1  UNL1        0.1232
     24 C         143.1848  143.6261  161.7749 C.3     1  UNL1        0.1591
     25 C         144.1420  144.3248  162.6945 C.3     1  UNL1        0.1729
     26 O         143.6237  145.2577  163.7485 O.3     1  UNL1       -0.3511
     27 C         142.1482  145.4919  163.8831 C.3     1  UNL1        0.1437
     28 C         141.1910  144.7932  162.9635 C.3     1  UNL1        0.0503
     29 C         141.7093  143.8603  161.9094 C.3     1  UNL1        0.0865
     30 C         144.4805  141.4728  161.1159 C.3     1  UNL1        0.1742
     31 O         143.7031  142.6932  160.7208 O.3     1  UNL1       -0.3496
@<TRIPOS>BOND
     1    30    31    1
     2    31    24    1
     3    24    25    1
     4    25    26    1
     5    26    27    1
     6    27    28    1
     7    28    29    1
     8    29    22    1
     9     1    22    1
    10     1     2    1
    11     3     2    1
    12     3     4    1
    13     4     5    1
    14     5     6    1
    15     6     7    1
    16     7     9    1
    17     9    10    2
    18     9    11   am
    19    11    12    1
    20    12    13    1
    21    13    14    1
    22    14    15   ar
    23    15    16   ar
    24    16    17   ar
    25    17    18    1
    26    17    19   ar
    27    19    20   ar
    28    20    21    1
    29     7     8    1
    30    29    24    1
    31     8     1    1
    32     7     3    1
    33    21    11    1
    34    20    14   ar
    35    22    23    1
@<TRIPOS>MOLECULE
*****
 31 35 0 0 0
SMALL
GASTEIGER

@<TRIPOS>ATOM
      1 C         142.0759  139.0556  166.3370 C.3     1  UNL1        0.0545
      2 C         142.4478  138.0012  165.3370 C.3     1  UNL1        0.0162
      3 C         141.3294  137.8893  164.3438 C.3     1  UNL1        0.0095
      4 C         140.8680  137.1685  163.1119 C.3     1  UNL1        0.0005
      5 C         139.5197  137.7082  162.7367 C.3     1  UNL1        0.0005
      6 C         139.1478  138.7626  163.7366 C.3     1  UNL1        0.0087
      7 C         140.2662  138.8746  164.7299 C.3     1  UNL1        0.0704
      8 C         140.7276  139.5953  165.9617 C.3     1  UNL1        0.0243
      9 C         139.2031  139.8598  165.1160 C.2     1  UNL1        0.2250
     10 O         138.2421  139.5320  166.2200 O.2     1  UNL1       -0.2749
     11 N         139.1011  141.1729  164.3980 N.am    1  UNL1       -0.2750
     12 C         138.0380  142.1581  164.7841 C.3     1  UNL1        0.1000
     13 C         137.9360  143.4712  164.0661 C.3     1  UNL1        0.0670
     14 C         138.8970  143.7990  162.9621 C.ar    1  UNL1        0.0584
     15 N         138.7950  145.1121  162.2441 N.ar    1  UNL1       -0.2478
     16 C         139.7560  145.4399  161.1401 C.ar    1  UNL1        0.1051
     17 C         140.8192  144.4545  160.7540 C.ar    1  UNL1        0.0534
     18 BR        141.7802  144.7823  159.6500 Br      1  UNL1       -0.0474
     19 C         140.9212  143.1415  161.4720 C.ar    1  UNL1        0.0068
     20 C         139.9601  142.8137  162.5760 C.ar    1  UNL1        0.0118
     21 C         140.0621  141.5007  163.2940 C.3     1  UNL1        0.1213
     22 N         142.9065  139.4934  167.5069 N.3     1  UNL1       -0.2975
     23 H         143.2026  138.6460  167.9913 H       1  UNL1        0.1232
     24 C         142.5690  141.8804  168.4756 C.3     1  UNL1        0.1591
     25 C         141.9817  142.7899  169.5138 C.3     1  UNL1        0.1729
     26 O         141.1447  142.2221  170.6214 O.3     1  UNL1       -0.3511
     27 C         140.8949  140.7446  170.6909 C.3     1  UNL1        0.1437
     28 C         141.4822  139.8350  169.6527 C.3     1  UNL1        0.0503
     29 C         142.3192  140.4030  168.5451 C.3     1  UNL1        0.0865
     30 C         142.8121  142.6455  166.0046 C.3     1  UNL1        0.1742
     31 O         143.4060  142.4482  167.3679 O.3     1  UNL1       -0.3496
@<TRIPOS>BOND
     1    30    31    1
     2    31    24    1
     3    24    25    1
     4    25    26    1
     5    26    27    1
     6    27    28    1
     7    28    29    1
     8    29    22    1
     9     1    22    1
    10     1     2    1
    11     3     2    1
    12     3     4    1
    13     4     5    1
    14     5     6    1
    15     6     7    1
    16     7     9    1
    17     9    10    2
    18     9    11   am
    19    11    12    1
    20    12    13    1
    21    13    14    1
    22    14    15   ar
    23    15    16   ar
    24    16    17   ar
    25    17    18    1
    26    17    19   ar
    27    19    20   ar
    28    20    21    1
    29     7     8    1
    30    29    24    1
    31     8     1    1
    32     7     3    1
    33    21    11    1
    34    20    14   ar
    35    22    23    1
