@<TRIPOS>MOLECULE
*****
 29 32 0 0 0
SMALL
GASTEIGER

@<TRIPOS>ATOM
      1 O         141.5177  138.2591  160.7169 O.2     1  UNL1       -0.2522
      2 C         142.4712  139.3228  160.2597 C.2     1  UNL1        0.3080
      3 N         142.8757  139.3978  158.8173 N.am    1  UNL1       -0.2681
      4 N         143.0202  140.3117  161.2450 N.am    1  UNL1       -0.2559
      5 C         143.9649  141.3331  160.6842 C.3     1  UNL1        0.1425
      6 C         144.6747  142.4435  161.4008 C.3     1  UNL1        0.2268
      7 O         144.6151  142.8066  162.8548 O.3     1  UNL1       -0.4739
      8 C         143.8310  142.1492  163.9517 C.ar    1  UNL1        0.1362
      9 C         144.0557  142.8295  165.2695 C.ar    1  UNL1        0.0366
     10 C         143.3622  142.3268  166.5010 C.ar    1  UNL1        0.0031
     11 C         142.4441  141.1437  166.4145 C.ar    1  UNL1        0.0000
     12 C         142.2194  140.4634  165.0966 C.ar    1  UNL1        0.0004
     13 C         142.9129  140.9662  163.8652 C.ar    1  UNL1        0.0317
     14 C         142.5521  140.1484  162.6606 C.3     1  UNL1        0.1248
     15 H         143.5016  140.0960  158.5172 H       1  UNL1        0.1564
     16 C         142.3267  138.4089  157.8319 C.ar    1  UNL1        0.0525
     17 C         141.1823  138.7936  156.9418 C.ar    1  UNL1        0.0156
     18 C         140.6333  137.8047  155.9565 C.ar    1  UNL1        0.0135
     19 C         141.2286  136.4312  155.8615 C.ar    1  UNL1        0.0683
     20 CL        140.6795  135.4424  154.8762 Cl      1  UNL1       -0.0814
     21 C         142.3730  136.0466  156.7517 C.ar    1  UNL1        0.0694
     22 CL        142.9683  134.6730  156.6566 Cl      1  UNL1       -0.0813
     23 C         142.9220  137.0354  157.7369 C.ar    1  UNL1        0.0270
     24 C         141.7506  140.6410  167.6459 C.ar    1  UNL1        0.0031
     25 C         140.2675  140.8105  167.7935 C.ar    1  UNL1        0.0207
     26 C         139.5740  140.3078  169.0248 C.ar    1  UNL1        0.0989
     27 N         140.3636  139.6355  170.1087 N.ar    1  UNL1       -0.2423
     28 C         141.8467  139.4660  169.9611 C.ar    1  UNL1        0.0989
     29 C         142.5402  139.9688  168.7296 C.ar    1  UNL1        0.0207
@<TRIPOS>BOND
     1     1     2    2
     2     2     3   am
     3     3    16    1
     4    16    17   ar
     5    17    18   ar
     6    18    19   ar
     7    19    20    1
     8    19    21   ar
     9    21    22    1
    10    21    23   ar
    11     2     4   am
    12     4     5    1
    13     5     6    1
    14     6     7    1
    15     7     8    1
    16     8     9   ar
    17     9    10   ar
    18    10    11   ar
    19    11    24    1
    20    24    25   ar
    21    25    26   ar
    22    26    27   ar
    23    27    28   ar
    24    28    29   ar
    25    11    12   ar
    26    12    13   ar
    27    13    14    1
    28    23    16   ar
    29    14     4    1
    30    13     8   ar
    31    29    24   ar
    32     3    15    1
@<TRIPOS>MOLECULE
*****
 29 32 0 0 0
SMALL
GASTEIGER

@<TRIPOS>ATOM
      1 O         142.5602  141.5909  161.5972 O.2     1  UNL1       -0.2522
      2 C         141.6016  140.5276  161.1496 C.2     1  UNL1        0.3080
      3 N         141.5648  140.1089  159.7097 N.am    1  UNL1       -0.2681
      4 N         140.6798  139.8830  162.1419 N.am    1  UNL1       -0.2559
      5 C         139.7620  138.8323  161.5905 C.3     1  UNL1        0.1425
      6 C         138.7354  138.0134  162.3154 C.3     1  UNL1        0.2268
      7 O         138.3730  138.0429  163.7706 O.3     1  UNL1       -0.4739
      8 C         138.9476  138.8985  164.8604 C.ar    1  UNL1        0.1362
      9 C         138.2994  138.6110  166.1822 C.ar    1  UNL1        0.0366
     10 C         138.7303  139.3610  167.4078 C.ar    1  UNL1        0.0031
     11 C         139.8093  140.3986  167.3115 C.ar    1  UNL1        0.0000
     12 C         140.4575  140.6860  165.9896 C.ar    1  UNL1        0.0004
     13 C         140.0266  139.9360  164.7641 C.ar    1  UNL1        0.0317
     14 C         140.7975  140.3741  163.5542 C.3     1  UNL1        0.1248
     15 H         140.9357  139.4110  159.4159 H       1  UNL1        0.1564
     16 C         142.4867  140.7536  158.7174 C.ar    1  UNL1        0.0525
     17 C         143.8165  140.1296  158.4137 C.ar    1  UNL1        0.0156
     18 C         144.7383  140.7743  157.4214 C.ar    1  UNL1        0.0135
     19 C         144.3304  142.0430  156.7328 C.ar    1  UNL1        0.0683
     20 CL        145.2523  142.6876  155.7406 Cl      1  UNL1       -0.0814
     21 C         143.0006  142.6669  157.0366 C.ar    1  UNL1        0.0694
     22 CL        142.5926  143.9356  156.3480 Cl      1  UNL1       -0.0813
     23 C         142.0788  142.0222  158.0288 C.ar    1  UNL1        0.0270
     24 C         140.2401  141.1486  168.5369 C.ar    1  UNL1        0.0031
     25 C         140.4237  142.6362  168.4800 C.ar    1  UNL1        0.0207
     26 C         140.8546  143.3862  169.7054 C.ar    1  UNL1        0.0989
     27 N         141.1018  142.6486  170.9880 N.ar    1  UNL1       -0.2423
     28 C         140.9182  141.1609  171.0450 C.ar    1  UNL1        0.0989
     29 C         140.4874  140.4109  169.8194 C.ar    1  UNL1        0.0207
@<TRIPOS>BOND
     1     1     2    2
     2     2     3   am
     3     3    16    1
     4    16    17   ar
     5    17    18   ar
     6    18    19   ar
     7    19    20    1
     8    19    21   ar
     9    21    22    1
    10    21    23   ar
    11     2     4   am
    12     4     5    1
    13     5     6    1
    14     6     7    1
    15     7     8    1
    16     8     9   ar
    17     9    10   ar
    18    10    11   ar
    19    11    24    1
    20    24    25   ar
    21    25    26   ar
    22    26    27   ar
    23    27    28   ar
    24    28    29   ar
    25    11    12   ar
    26    12    13   ar
    27    13    14    1
    28    23    16   ar
    29    14     4    1
    30    13     8   ar
    31    29    24   ar
    32     3    15    1
@<TRIPOS>MOLECULE
*****
 29 32 0 0 0
SMALL
GASTEIGER

@<TRIPOS>ATOM
      1 O         139.2904  141.7541  161.4613 O.2     1  UNL1       -0.2522
      2 C         140.4595  140.9931  160.9099 C.2     1  UNL1        0.3080
      3 N         140.6754  140.9206  159.4274 N.am    1  UNL1       -0.2681
      4 N         141.4128  140.3047  161.8413 N.am    1  UNL1       -0.2559
      5 C         142.5469  139.5724  161.1872 C.3     1  UNL1        0.1425
      6 C         143.6542  138.7941  161.8339 C.3     1  UNL1        0.2268
      7 O         143.9009  138.5559  163.2941 O.3     1  UNL1       -0.4739
      8 C         143.1014  139.0371  164.4684 C.ar    1  UNL1        0.1362
      9 C         143.6966  138.5721  165.7643 C.ar    1  UNL1        0.0366
     10 C         143.0480  138.9453  167.0644 C.ar    1  UNL1        0.0031
     11 C         141.8041  139.7836  167.0684 C.ar    1  UNL1        0.0000
     12 C         141.2089  140.2487  165.7725 C.ar    1  UNL1        0.0004
     13 C         141.8575  139.8754  164.4725 C.ar    1  UNL1        0.0317
     14 C         141.1060  140.4395  163.3033 C.3     1  UNL1        0.1248
     15 H         141.4427  140.4211  159.0655 H       1  UNL1        0.1564
     16 C         139.7220  141.6091  158.4961 C.ar    1  UNL1        0.0525
     17 C         140.0220  142.9943  158.0050 C.ar    1  UNL1        0.0156
     18 C         139.0687  143.6827  157.0738 C.ar    1  UNL1        0.0135
     19 C         137.8154  142.9859  156.6336 C.ar    1  UNL1        0.0683
     20 CL        136.8621  143.6744  155.7023 Cl      1  UNL1       -0.0814
     21 C         137.5155  141.6007  157.1246 C.ar    1  UNL1        0.0694
     22 CL        136.2622  140.9039  156.6843 Cl      1  UNL1       -0.0813
     23 C         138.4688  140.9123  158.0558 C.ar    1  UNL1        0.0270
     24 C         141.1555  140.1569  168.3684 C.ar    1  UNL1        0.0031
     25 C         141.9956  140.6329  169.5163 C.ar    1  UNL1        0.0207
     26 C         141.3470  141.0061  170.8163 C.ar    1  UNL1        0.0989
     27 N         139.8583  140.9034  170.9684 N.ar    1  UNL1       -0.2423
     28 C         139.0182  140.4273  169.8205 C.ar    1  UNL1        0.0989
     29 C         139.6668  140.0541  168.5205 C.ar    1  UNL1        0.0207
@<TRIPOS>BOND
     1     1     2    2
     2     2     3   am
     3     3    16    1
     4    16    17   ar
     5    17    18   ar
     6    18    19   ar
     7    19    20    1
     8    19    21   ar
     9    21    22    1
    10    21    23   ar
    11     2     4   am
    12     4     5    1
    13     5     6    1
    14     6     7    1
    15     7     8    1
    16     8     9   ar
    17     9    10   ar
    18    10    11   ar
    19    11    24    1
    20    24    25   ar
    21    25    26   ar
    22    26    27   ar
    23    27    28   ar
    24    28    29   ar
    25    11    12   ar
    26    12    13   ar
    27    13    14    1
    28    23    16   ar
    29    14     4    1
    30    13     8   ar
    31    29    24   ar
    32     3    15    1
@<TRIPOS>MOLECULE
*****
 29 32 0 0 0
SMALL
GASTEIGER

@<TRIPOS>ATOM
      1 O         142.4170  137.3357  159.8800 O.2     1  UNL1       -0.2522
      2 C         142.9751  138.4232  159.0108 C.2     1  UNL1        0.3080
      3 N         143.0859  138.2166  157.5293 N.am    1  UNL1       -0.2681
      4 N         143.4225  139.7174  159.6232 N.am    1  UNL1       -0.2559
      5 C         143.9646  140.7372  158.6659 C.3     1  UNL1        0.1425
      6 C         144.4868  142.1122  158.9609 C.3     1  UNL1        0.2268
      7 O         144.5957  142.8068  160.2857 O.3     1  UNL1       -0.4739
      8 C         144.2095  142.2982  161.6430 C.ar    1  UNL1        0.1362
      9 C         144.4848  143.3171  162.7088 C.ar    1  UNL1        0.0366
     10 C         144.1696  143.0071  164.1422 C.ar    1  UNL1        0.0031
     11 C         143.5790  141.6782  164.5098 C.ar    1  UNL1        0.0000
     12 C         143.3036  140.6592  163.4439 C.ar    1  UNL1        0.0004
     13 C         143.6189  140.9693  162.0106 C.ar    1  UNL1        0.0317
     14 C         143.2687  139.8207  161.1116 C.3     1  UNL1        0.1248
     15 H         143.4523  138.9305  156.9587 H       1  UNL1        0.1564
     16 C         142.6385  136.9224  156.9169 C.ar    1  UNL1        0.0525
     17 C         141.4810  136.9045  155.9632 C.ar    1  UNL1        0.0156
     18 C         141.0336  135.6103  155.3509 C.ar    1  UNL1        0.0135
     19 C         141.7438  134.3340  155.6924 C.ar    1  UNL1        0.0683
     20 CL        141.2964  133.0398  155.0800 Cl      1  UNL1       -0.0814
     21 C         142.9014  134.3519  156.6461 C.ar    1  UNL1        0.0694
     22 CL        143.6116  133.0755  156.9875 Cl      1  UNL1       -0.0813
     23 C         143.3487  135.6461  157.2584 C.ar    1  UNL1        0.0270
     24 C         143.2638  141.3681  165.9431 C.ar    1  UNL1        0.0031
     25 C         143.3157  142.4558  166.9747 C.ar    1  UNL1        0.0207
     26 C         143.0005  142.1458  168.4080 C.ar    1  UNL1        0.0989
     27 N         142.6333  140.7479  168.8098 N.ar    1  UNL1       -0.2423
     28 C         142.5813  139.6603  167.7782 C.ar    1  UNL1        0.0989
     29 C         142.8965  139.9704  166.3448 C.ar    1  UNL1        0.0207
@<TRIPOS>BOND
     1     1     2    2
     2     2     3   am
     3     3    16    1
     4    16    17   ar
     5    17    18   ar
     6    18    19   ar
     7    19    20    1
     8    19    21   ar
     9    21    22    1
    10    21    23   ar
    11     2     4   am
    12     4     5    1
    13     5     6    1
    14     6     7    1
    15     7     8    1
    16     8     9   ar
    17     9    10   ar
    18    10    11   ar
    19    11    24    1
    20    24    25   ar
    21    25    26   ar
    22    26    27   ar
    23    27    28   ar
    24    28    29   ar
    25    11    12   ar
    26    12    13   ar
    27    13    14    1
    28    23    16   ar
    29    14     4    1
    30    13     8   ar
    31    29    24   ar
    32     3    15    1
@<TRIPOS>MOLECULE
*****
 29 32 0 0 0
SMALL
GASTEIGER

@<TRIPOS>ATOM
      1 O         140.6738  143.2539  161.7929 O.2     1  UNL1       -0.2522
      2 C         141.6481  142.2788  161.2011 C.2     1  UNL1        0.3080
      3 N         141.9700  142.3352  159.7372 N.am    1  UNL1       -0.2681
      4 N         142.3003  141.2474  162.0734 N.am    1  UNL1       -0.2559
      5 C         143.2576  140.3221  161.3824 C.3     1  UNL1        0.1425
      6 C         144.0601  139.1984  161.9687 C.3     1  UNL1        0.2268
      7 O         144.1034  138.7228  163.3905 O.3     1  UNL1       -0.4739
      8 C         143.3551  139.2531  164.5774 C.ar    1  UNL1        0.1362
      9 C         143.6889  138.4868  165.8229 C.ar    1  UNL1        0.0366
     10 C         143.0461  138.8575  167.1266 C.ar    1  UNL1        0.0031
     11 C         142.0695  139.9946  167.1847 C.ar    1  UNL1        0.0000
     12 C         141.7357  140.7609  165.9391 C.ar    1  UNL1        0.0004
     13 C         142.3785  140.3902  164.6355 C.ar    1  UNL1        0.0317
     14 C         141.9091  141.2777  163.5211 C.3     1  UNL1        0.1248
     15 H         142.6095  141.6953  159.3489 H       1  UNL1        0.1564
     16 C         141.3177  143.3667  158.8650 C.ar    1  UNL1        0.0525
     17 C         141.8279  144.7772  158.8618 C.ar    1  UNL1        0.0156
     18 C         141.1755  145.8086  157.9895 C.ar    1  UNL1        0.0135
     19 C         140.0132  145.4294  157.1206 C.ar    1  UNL1        0.0683
     20 CL        139.3609  146.4609  156.2484 Cl      1  UNL1       -0.0814
     21 C         139.5031  144.0189  157.1239 C.ar    1  UNL1        0.0694
     22 CL        138.3406  143.6397  156.2549 Cl      1  UNL1       -0.0813
     23 C         140.1554  142.9875  157.9961 C.ar    1  UNL1        0.0270
     24 C         141.4267  140.3653  168.4882 C.ar    1  UNL1        0.0031
     25 C         139.9327  140.3441  168.6206 C.ar    1  UNL1        0.0207
     26 C         139.2899  140.7149  169.9242 C.ar    1  UNL1        0.0989
     27 N         140.1412  141.1067  171.0955 N.ar    1  UNL1       -0.2423
     28 C         141.6352  141.1279  170.9631 C.ar    1  UNL1        0.0989
     29 C         142.2780  140.7571  169.6595 C.ar    1  UNL1        0.0207
@<TRIPOS>BOND
     1     1     2    2
     2     2     3   am
     3     3    16    1
     4    16    17   ar
     5    17    18   ar
     6    18    19   ar
     7    19    20    1
     8    19    21   ar
     9    21    22    1
    10    21    23   ar
    11     2     4   am
    12     4     5    1
    13     5     6    1
    14     6     7    1
    15     7     8    1
    16     8     9   ar
    17     9    10   ar
    18    10    11   ar
    19    11    24    1
    20    24    25   ar
    21    25    26   ar
    22    26    27   ar
    23    27    28   ar
    24    28    29   ar
    25    11    12   ar
    26    12    13   ar
    27    13    14    1
    28    23    16   ar
    29    14     4    1
    30    13     8   ar
    31    29    24   ar
    32     3    15    1
@<TRIPOS>MOLECULE
*****
 29 32 0 0 0
SMALL
GASTEIGER

@<TRIPOS>ATOM
      1 O         141.2423  144.1529  161.0448 O.2     1  UNL1       -0.2522
      2 C         141.6352  142.7957  160.5411 C.2     1  UNL1        0.3080
      3 N         141.6768  142.5263  159.0662 N.am    1  UNL1       -0.2681
      4 N         141.9863  141.7080  161.5125 N.am    1  UNL1       -0.2559
      5 C         142.3647  140.3898  160.9045 C.3     1  UNL1        0.1425
      6 C         142.7629  139.1203  161.5973 C.3     1  UNL1        0.2268
      7 O         142.8810  138.8555  163.0689 O.3     1  UNL1       -0.4739
      8 C         142.6302  139.7945  164.2114 C.ar    1  UNL1        0.1362
      9 C         142.8655  139.1250  165.5329 C.ar    1  UNL1        0.0366
     10 C         142.6698  139.8915  166.8074 C.ar    1  UNL1        0.0031
     11 C         142.2388  141.3275  166.7603 C.ar    1  UNL1        0.0000
     12 C         142.0036  141.9970  165.4387 C.ar    1  UNL1        0.0004
     13 C         142.1993  141.2305  164.1643 C.ar    1  UNL1        0.0317
     14 C         141.9127  142.0820  162.9631 C.3     1  UNL1        0.1248
     15 H         141.9346  141.6355  158.7356 H       1  UNL1        0.1564
     16 C         141.3256  143.6141  158.0948 C.ar    1  UNL1        0.0525
     17 C         142.2764  144.7516  157.8668 C.ar    1  UNL1        0.0156
     18 C         141.9252  145.8394  156.8955 C.ar    1  UNL1        0.0135
     19 C         140.6232  145.7896  156.1522 C.ar    1  UNL1        0.0683
     20 CL        140.2721  146.8774  155.1809 Cl      1  UNL1       -0.0814
     21 C         139.6725  144.6520  156.3802 C.ar    1  UNL1        0.0694
     22 CL        138.3705  144.6023  155.6369 Cl      1  UNL1       -0.0813
     23 C         140.0237  143.5643  157.3515 C.ar    1  UNL1        0.0270
     24 C         142.0431  142.0940  168.0347 C.ar    1  UNL1        0.0031
     25 C         140.7263  142.7539  168.3183 C.ar    1  UNL1        0.0207
     26 C         140.5306  143.5204  169.5927 C.ar    1  UNL1        0.0989
     27 N         141.6518  143.6270  170.5836 N.ar    1  UNL1       -0.2423
     28 C         142.9686  142.9671  170.3000 C.ar    1  UNL1        0.0989
     29 C         143.1642  142.2006  169.0255 C.ar    1  UNL1        0.0207
@<TRIPOS>BOND
     1     1     2    2
     2     2     3   am
     3     3    16    1
     4    16    17   ar
     5    17    18   ar
     6    18    19   ar
     7    19    20    1
     8    19    21   ar
     9    21    22    1
    10    21    23   ar
    11     2     4   am
    12     4     5    1
    13     5     6    1
    14     6     7    1
    15     7     8    1
    16     8     9   ar
    17     9    10   ar
    18    10    11   ar
    19    11    24    1
    20    24    25   ar
    21    25    26   ar
    22    26    27   ar
    23    27    28   ar
    24    28    29   ar
    25    11    12   ar
    26    12    13   ar
    27    13    14    1
    28    23    16   ar
    29    14     4    1
    30    13     8   ar
    31    29    24   ar
    32     3    15    1
@<TRIPOS>MOLECULE
*****
 29 32 0 0 0
SMALL
GASTEIGER

@<TRIPOS>ATOM
      1 O         141.2043  143.2302  161.4798 O.2     1  UNL1       -0.2522
      2 C         140.3583  142.0588  161.0771 C.2     1  UNL1        0.3080
      3 N         140.0771  141.8001  159.6266 N.am    1  UNL1       -0.2681
      4 N         139.7934  141.1462  162.1250 N.am    1  UNL1       -0.2559
      5 C         138.9620  140.0063  161.6156 C.3     1  UNL1        0.1425
      6 C         138.2664  138.9328  162.3991 C.3     1  UNL1        0.2268
      7 O         138.2305  138.7341  163.8854 O.3     1  UNL1       -0.4739
      8 C         138.8813  139.5597  164.9554 C.ar    1  UNL1        0.1362
      9 C         138.5932  139.0118  166.3217 C.ar    1  UNL1        0.0366
     10 C         139.1525  139.6922  167.5359 C.ar    1  UNL1        0.0031
     11 C         139.9999  140.9205  167.3838 C.ar    1  UNL1        0.0000
     12 C         140.2880  141.4684  166.0174 C.ar    1  UNL1        0.0004
     13 C         139.7287  140.7880  164.8033 C.ar    1  UNL1        0.0317
     14 C         140.1346  141.4940  163.5436 C.3     1  UNL1        0.1248
     15 H         139.5219  141.0313  159.3624 H       1  UNL1        0.1564
     16 C         140.6421  142.7128  158.5787 C.ar    1  UNL1        0.0525
     17 C         141.8166  142.2735  157.7558 C.ar    1  UNL1        0.0156
     18 C         142.3815  143.1862  156.7079 C.ar    1  UNL1        0.0135
     19 C         141.7718  144.5381  156.4831 C.ar    1  UNL1        0.0683
     20 CL        142.3367  145.4507  155.4352 Cl      1  UNL1       -0.0814
     21 C         140.5973  144.9773  157.3061 C.ar    1  UNL1        0.0694
     22 CL        139.9876  146.3294  157.0813 Cl      1  UNL1       -0.0813
     23 C         140.0324  144.0647  158.3539 C.ar    1  UNL1        0.0270
     24 C         140.5592  141.6009  168.5979 C.ar    1  UNL1        0.0031
     25 C         141.2815  140.8001  169.6405 C.ar    1  UNL1        0.0207
     26 C         141.8409  141.4804  170.8547 C.ar    1  UNL1        0.0989
     27 N         141.6779  142.9617  171.0263 N.ar    1  UNL1       -0.2423
     28 C         140.9556  143.7625  169.9837 C.ar    1  UNL1        0.0989
     29 C         140.3963  143.0820  168.7695 C.ar    1  UNL1        0.0207
@<TRIPOS>BOND
     1     1     2    2
     2     2     3   am
     3     3    16    1
     4    16    17   ar
     5    17    18   ar
     6    18    19   ar
     7    19    20    1
     8    19    21   ar
     9    21    22    1
    10    21    23   ar
    11     2     4   am
    12     4     5    1
    13     5     6    1
    14     6     7    1
    15     7     8    1
    16     8     9   ar
    17     9    10   ar
    18    10    11   ar
    19    11    24    1
    20    24    25   ar
    21    25    26   ar
    22    26    27   ar
    23    27    28   ar
    24    28    29   ar
    25    11    12   ar
    26    12    13   ar
    27    13    14    1
    28    23    16   ar
    29    14     4    1
    30    13     8   ar
    31    29    24   ar
    32     3    15    1
@<TRIPOS>MOLECULE
*****
 29 32 0 0 0
SMALL
GASTEIGER

@<TRIPOS>ATOM
      1 O         142.2320  141.4578  164.0366 O.2     1  UNL1       -0.2522
      2 C         141.3332  142.6543  164.1397 C.2     1  UNL1        0.3080
      3 N         140.6317  142.9564  165.4306 N.am    1  UNL1       -0.2681
      4 N         141.1360  143.5487  162.9518 N.am    1  UNL1       -0.2559
      5 C         140.2180  144.7163  163.1615 C.3     1  UNL1        0.1425
      6 C         139.8201  145.7809  162.1824 C.3     1  UNL1        0.2268
      7 O         140.2419  145.9406  160.7520 O.3     1  UNL1       -0.4739
      8 C         141.1658  145.0754  159.9471 C.ar    1  UNL1        0.1362
      9 C         141.3198  145.5919  158.5473 C.ar    1  UNL1        0.0366
     10 C         142.2040  144.8697  157.5743 C.ar    1  UNL1        0.0031
     11 C         142.9342  143.6309  158.0012 C.ar    1  UNL1        0.0000
     12 C         142.7803  143.1145  159.4011 C.ar    1  UNL1        0.0004
     13 C         141.8961  143.8367  160.3740 C.ar    1  UNL1        0.0317
     14 C         141.8828  143.1573  161.7112 C.3     1  UNL1        0.1248
     15 H         140.0419  143.7418  165.4983 H       1  UNL1        0.1564
     16 C         140.8290  142.0620  166.6186 C.ar    1  UNL1        0.0525
     17 C         139.8375  140.9754  166.9122 C.ar    1  UNL1        0.0156
     18 C         140.0348  140.0811  168.1001 C.ar    1  UNL1        0.0135
     19 C         141.2235  140.2733  168.9944 C.ar    1  UNL1        0.0683
     20 CL        141.4207  139.3788  170.1823 Cl      1  UNL1       -0.0814
     21 C         142.2150  141.3598  168.7008 C.ar    1  UNL1        0.0694
     22 CL        143.4039  141.5520  169.5952 Cl      1  UNL1       -0.0813
     23 C         142.0178  142.2542  167.5129 C.ar    1  UNL1        0.0270
     24 C         143.8184  142.9087  157.0283 C.ar    1  UNL1        0.0031
     25 C         143.4966  142.9304  155.5634 C.ar    1  UNL1        0.0207
     26 C         144.3807  142.2081  154.5905 C.ar    1  UNL1        0.0989
     27 N         145.5868  141.4641  155.0825 N.ar    1  UNL1       -0.2423
     28 C         145.9086  141.4425  156.5474 C.ar    1  UNL1        0.0989
     29 C         145.0244  142.1648  157.5203 C.ar    1  UNL1        0.0207
@<TRIPOS>BOND
     1     1     2    2
     2     2     3   am
     3     3    16    1
     4    16    17   ar
     5    17    18   ar
     6    18    19   ar
     7    19    20    1
     8    19    21   ar
     9    21    22    1
    10    21    23   ar
    11     2     4   am
    12     4     5    1
    13     5     6    1
    14     6     7    1
    15     7     8    1
    16     8     9   ar
    17     9    10   ar
    18    10    11   ar
    19    11    24    1
    20    24    25   ar
    21    25    26   ar
    22    26    27   ar
    23    27    28   ar
    24    28    29   ar
    25    11    12   ar
    26    12    13   ar
    27    13    14    1
    28    23    16   ar
    29    14     4    1
    30    13     8   ar
    31    29    24   ar
    32     3    15    1
@<TRIPOS>MOLECULE
*****
 29 32 0 0 0
SMALL
GASTEIGER

@<TRIPOS>ATOM
      1 O         144.9614  141.7978  160.9402 O.2     1  UNL1       -0.2522
      2 C         143.7903  142.5821  160.4270 C.2     1  UNL1        0.3080
      3 N         143.7366  142.9932  158.9854 N.am    1  UNL1       -0.2681
      4 N         142.6728  142.9554  161.3554 N.am    1  UNL1       -0.2559
      5 C         141.5508  143.7391  160.7413 C.3     1  UNL1        0.1425
      6 C         140.3040  144.2566  161.3953 C.3     1  UNL1        0.2268
      7 O         139.8712  144.1181  162.8247 O.3     1  UNL1       -0.4739
      8 C         140.5783  143.4280  163.9534 C.ar    1  UNL1        0.1362
      9 C         139.7963  143.5234  165.2298 C.ar    1  UNL1        0.0366
     10 C         140.3290  142.8966  166.4843 C.ar    1  UNL1        0.0031
     11 C         141.6435  142.1745  166.4621 C.ar    1  UNL1        0.0000
     12 C         142.4255  142.0791  165.1856 C.ar    1  UNL1        0.0004
     13 C         141.8928  142.7059  163.9312 C.ar    1  UNL1        0.0317
     14 C         142.8249  142.4956  162.7749 C.3     1  UNL1        0.1248
     15 H         142.9680  143.5079  158.6486 H       1  UNL1        0.1564
     16 C         144.8542  142.6199  158.0570 C.ar    1  UNL1        0.0525
     17 C         146.2237  143.1964  158.2619 C.ar    1  UNL1        0.0156
     18 C         147.3412  142.8231  157.3335 C.ar    1  UNL1        0.0135
     19 C         147.0891  141.8733  156.2002 C.ar    1  UNL1        0.0683
     20 CL        148.2066  141.5001  155.2719 Cl      1  UNL1       -0.0814
     21 C         145.7196  141.2969  155.9953 C.ar    1  UNL1        0.0694
     22 CL        145.4676  140.3471  154.8619 Cl      1  UNL1       -0.0813
     23 C         144.6022  141.6701  156.9237 C.ar    1  UNL1        0.0270
     24 C         142.1762  141.5477  167.7165 C.ar    1  UNL1        0.0031
     25 C         143.0009  142.3610  168.6695 C.ar    1  UNL1        0.0207
     26 C         143.5336  141.7342  169.9239 C.ar    1  UNL1        0.0989
     27 N         143.2414  140.2941  170.2252 N.ar    1  UNL1       -0.2423
     28 C         142.4167  139.4808  169.2722 C.ar    1  UNL1        0.0989
     29 C         141.8840  140.1076  168.0178 C.ar    1  UNL1        0.0207
@<TRIPOS>BOND
     1     1     2    2
     2     2     3   am
     3     3    16    1
     4    16    17   ar
     5    17    18   ar
     6    18    19   ar
     7    19    20    1
     8    19    21   ar
     9    21    22    1
    10    21    23   ar
    11     2     4   am
    12     4     5    1
    13     5     6    1
    14     6     7    1
    15     7     8    1
    16     8     9   ar
    17     9    10   ar
    18    10    11   ar
    19    11    24    1
    20    24    25   ar
    21    25    26   ar
    22    26    27   ar
    23    27    28   ar
    24    28    29   ar
    25    11    12   ar
    26    12    13   ar
    27    13    14    1
    28    23    16   ar
    29    14     4    1
    30    13     8   ar
    31    29    24   ar
    32     3    15    1
