@<TRIPOS>MOLECULE
*****
 32 36 0 0 0
SMALL
GASTEIGER

@<TRIPOS>ATOM
      1 N         139.6775  139.9965  166.0257 N.pl3   1  UNL1       -0.3046
      2 C         138.5371  140.2957  165.0984 C.3     1  UNL1        0.1081
      3 C         138.4580  139.6167  163.7632 C.3     1  UNL1        0.0938
      4 N         139.5194  138.6384  163.3553 N.3     1  UNL1       -0.2698
      5 C         140.6599  138.3391  164.2826 C.3     1  UNL1        0.0938
      6 C         140.7389  139.0182  165.6178 C.3     1  UNL1        0.1081
      7 F         139.9933  142.7124  171.3664 F       1  UNL1       -0.2042
      8 C         139.9143  142.0334  170.0312 C.ar    1  UNL1        0.1402
      9 C         139.3457  140.6494  169.9261 C.ar    1  UNL1        0.0309
     10 C         139.2668  139.9704  168.5909 C.ar    1  UNL1        0.0168
     11 C         139.7565  140.6755  167.3608 C.ar    1  UNL1        0.0480
     12 C         140.3251  142.0595  167.4660 C.ar    1  UNL1        0.0156
     13 C         140.4040  142.7385  168.8012 C.ar    1  UNL1        0.0309
     14 C         140.8148  142.7646  166.2359 C.ar    1  UNL1        0.0013
     15 C         139.8968  143.6784  165.4796 C.ar    1  UNL1        0.0000
     16 C         140.3865  144.3835  164.2495 C.ar    1  UNL1        0.0000
     17 C         141.7943  144.1747  163.7758 C.ar    1  UNL1        0.0000
     18 C         142.7124  143.2609  164.5321 C.ar    1  UNL1        0.0000
     19 C         142.2227  142.5558  165.7622 C.ar    1  UNL1        0.0000
     20 C         139.4405  137.9594  162.0202 C.3     1  UNL1        0.0725
     21 C         140.1670  138.5361  160.8414 C.3     1  UNL1        0.0221
     22 C         141.6606  138.4265  160.7539 C.3     1  UNL1        0.0294
     23 C         142.5091  139.6608  160.8348 C.2     1  UNL1       -0.0018
     24 C         142.4898  140.8088  159.8696 C.2     1  UNL1        0.0942
     25 N         143.4947  141.8212  160.3334 N.2     1  UNL1       -0.2482
     26 C         144.1352  141.2989  161.5852 C.2     1  UNL1        0.0632
     27 C         145.1943  141.8666  162.4829 C.3     1  UNL1        0.0741
     28 C         145.6442  141.0991  163.6905 C.2     1  UNL1        0.0098
     29 C         145.0351  139.7638  164.0004 C.2     1  UNL1        0.1363
     30 F         145.4851  138.9963  165.2081 F       1  UNL1       -0.2045
     31 C         143.9760  139.1961  163.1027 C.2     1  UNL1        0.0302
     32 C         143.5260  139.9637  161.8951 C.2     1  UNL1        0.0136
@<TRIPOS>BOND
     1     7     8    1
     2     8     9   ar
     3     9    10   ar
     4    10    11   ar
     5    11     1    1
     6     1     2    1
     7     2     3    1
     8     3     4    1
     9     4    20    1
    10    20    21    1
    11    21    22    1
    12    22    23    1
    13    23    24    2
    14    24    25    1
    15    25    26    2
    16    26    27    1
    17    27    28    1
    18    28    29    2
    19    29    30    1
    20    29    31    1
    21    31    32    2
    22     4     5    1
    23     5     6    1
    24    11    12   ar
    25    12    14    1
    26    14    15   ar
    27    15    16   ar
    28    16    17   ar
    29    17    18   ar
    30    18    19   ar
    31    12    13   ar
    32    13     8   ar
    33     6     1    1
    34    19    14   ar
    35    32    23    1
    36    32    26    1
@<TRIPOS>MOLECULE
*****
 32 36 0 0 0
SMALL
GASTEIGER

@<TRIPOS>ATOM
      1 N         140.0200  142.1523  166.3812 N.pl3   1  UNL1       -0.3046
      2 C         139.3503  140.8164  166.2515 C.3     1  UNL1        0.1081
      3 C         138.4758  140.5276  165.0675 C.3     1  UNL1        0.0938
      4 N         138.2709  141.5748  164.0132 N.3     1  UNL1       -0.2698
      5 C         138.9406  142.9107  164.1429 C.3     1  UNL1        0.0938
      6 C         139.8152  143.1995  165.3270 C.3     1  UNL1        0.1081
      7 F         143.5179  143.3071  171.1173 F       1  UNL1       -0.2042
      8 C         142.6434  143.0185  169.9333 C.ar    1  UNL1        0.1402
      9 C         141.1934  143.4016  169.9606 C.ar    1  UNL1        0.0309
     10 C         140.3190  143.1129  168.7766 C.ar    1  UNL1        0.0168
     11 C         140.8945  142.4410  167.5652 C.ar    1  UNL1        0.0480
     12 C         142.3445  142.0578  167.5379 C.ar    1  UNL1        0.0156
     13 C         143.2189  142.3465  168.7220 C.ar    1  UNL1        0.0309
     14 C         142.9200  141.3859  166.3266 C.ar    1  UNL1        0.0013
     15 C         143.5354  142.2087  165.2338 C.ar    1  UNL1        0.0000
     16 C         144.1109  141.5367  164.0225 C.ar    1  UNL1        0.0000
     17 C         144.0710  140.0420  163.9040 C.ar    1  UNL1        0.0000
     18 C         143.4556  139.2192  164.9968 C.ar    1  UNL1        0.0000
     19 C         142.8801  139.8911  166.2082 C.ar    1  UNL1        0.0000
     20 C         137.3964  141.2861  162.8293 C.3     1  UNL1        0.0725
     21 C         137.9744  140.6238  161.6138 C.3     1  UNL1        0.0221
     22 C         138.0876  139.1291  161.5564 C.3     1  UNL1        0.0294
     23 C         139.3821  138.4608  161.9134 C.2     1  UNL1       -0.0018
     24 C         139.5974  137.5064  163.0505 C.2     1  UNL1        0.0942
     25 N         141.0370  137.0853  163.0359 N.2     1  UNL1       -0.2482
     26 C         141.7114  137.7793  161.8898 C.2     1  UNL1        0.0632
     27 C         143.1247  137.7470  161.3882 C.3     1  UNL1        0.0741
     28 C         143.5151  138.5649  160.1930 C.2     1  UNL1        0.0098
     29 C         142.4923  139.4150  159.4993 C.2     1  UNL1        0.1363
     30 F         142.8829  140.2328  158.3040 F       1  UNL1       -0.2045
     31 C         141.0791  139.4473  160.0008 C.2     1  UNL1        0.0302
     32 C         140.6886  138.6294  161.1961 C.2     1  UNL1        0.0136
@<TRIPOS>BOND
     1     7     8    1
     2     8     9   ar
     3     9    10   ar
     4    10    11   ar
     5    11     1    1
     6     1     2    1
     7     2     3    1
     8     3     4    1
     9     4    20    1
    10    20    21    1
    11    21    22    1
    12    22    23    1
    13    23    24    2
    14    24    25    1
    15    25    26    2
    16    26    27    1
    17    27    28    1
    18    28    29    2
    19    29    30    1
    20    29    31    1
    21    31    32    2
    22     4     5    1
    23     5     6    1
    24    11    12   ar
    25    12    14    1
    26    14    15   ar
    27    15    16   ar
    28    16    17   ar
    29    17    18   ar
    30    18    19   ar
    31    12    13   ar
    32    13     8   ar
    33     6     1    1
    34    19    14   ar
    35    32    23    1
    36    32    26    1
@<TRIPOS>MOLECULE
*****
 32 36 0 0 0
SMALL
GASTEIGER

@<TRIPOS>ATOM
      1 N         142.4933  142.2345  166.0166 N.pl3   1  UNL1       -0.3046
      2 C         143.6173  142.1966  165.0240 C.3     1  UNL1        0.1081
      3 C         143.4414  142.8125  163.6677 C.3     1  UNL1        0.0938
      4 N         142.1413  143.4664  163.3038 N.3     1  UNL1       -0.2698
      5 C         141.0173  143.5043  164.2964 C.3     1  UNL1        0.0938
      6 C         141.1933  142.8884  165.6528 C.3     1  UNL1        0.1081
      7 F         143.1977  139.7710  171.4419 F       1  UNL1       -0.2042
      8 C         143.0216  140.3869  170.0856 C.ar    1  UNL1        0.1402
      9 C         143.4688  141.7972  169.8385 C.ar    1  UNL1        0.0309
     10 C         143.2927  142.4131  168.4821 C.ar    1  UNL1        0.0168
     11 C         142.6694  141.6186  167.3729 C.ar    1  UNL1        0.0480
     12 C         142.2222  140.2083  167.6200 C.ar    1  UNL1        0.0156
     13 C         142.3983  139.5925  168.9764 C.ar    1  UNL1        0.0309
     14 C         141.5989  139.4139  166.5108 C.ar    1  UNL1        0.0013
     15 C         142.4617  138.5899  165.6018 C.ar    1  UNL1        0.0000
     16 C         141.8384  137.7955  164.4926 C.ar    1  UNL1        0.0000
     17 C         140.3522  137.8251  164.2925 C.ar    1  UNL1        0.0000
     18 C         139.4892  138.6490  165.2015 C.ar    1  UNL1        0.0000
     19 C         140.1125  139.4435  166.3107 C.ar    1  UNL1        0.0000
     20 C         141.9653  144.0823  161.9475 C.3     1  UNL1        0.0725
     21 C         140.6320  144.6387  161.5439 C.3     1  UNL1        0.0221
     22 C         139.6962  143.8140  160.7107 C.3     1  UNL1        0.0294
     23 C         138.8637  142.7447  161.3537 C.2     1  UNL1       -0.0018
     24 C         137.7780  142.9618  162.3657 C.2     1  UNL1        0.0942
     25 N         137.2141  141.6218  162.7351 N.2     1  UNL1       -0.2482
     26 C         137.9513  140.5766  161.9514 C.2     1  UNL1        0.0632
     27 C         137.8259  139.0826  161.9050 C.3     1  UNL1        0.0741
     28 C         138.7201  138.2826  161.0048 C.2     1  UNL1        0.0098
     29 C         139.7397  138.9766  160.1510 C.2     1  UNL1        0.1363
     30 F         140.6339  138.1765  159.2508 F       1  UNL1       -0.2045
     31 C         139.8650  140.4706  160.1975 C.2     1  UNL1        0.0302
     32 C         138.9709  141.2706  161.0977 C.2     1  UNL1        0.0136
@<TRIPOS>BOND
     1     7     8    1
     2     8     9   ar
     3     9    10   ar
     4    10    11   ar
     5    11     1    1
     6     1     2    1
     7     2     3    1
     8     3     4    1
     9     4    20    1
    10    20    21    1
    11    21    22    1
    12    22    23    1
    13    23    24    2
    14    24    25    1
    15    25    26    2
    16    26    27    1
    17    27    28    1
    18    28    29    2
    19    29    30    1
    20    29    31    1
    21    31    32    2
    22     4     5    1
    23     5     6    1
    24    11    12   ar
    25    12    14    1
    26    14    15   ar
    27    15    16   ar
    28    16    17   ar
    29    17    18   ar
    30    18    19   ar
    31    12    13   ar
    32    13     8   ar
    33     6     1    1
    34    19    14   ar
    35    32    23    1
    36    32    26    1
@<TRIPOS>MOLECULE
*****
 32 36 0 0 0
SMALL
GASTEIGER

@<TRIPOS>ATOM
      1 N         139.6571  140.0254  166.0521 N.pl3   1  UNL1       -0.3046
      2 C         140.7442  139.0936  165.6047 C.3     1  UNL1        0.1081
      3 C         140.6459  138.4107  164.2728 C.3     1  UNL1        0.0938
      4 N         139.4604  138.6597  163.3882 N.3     1  UNL1       -0.2698
      5 C         138.3733  139.5914  163.8354 C.3     1  UNL1        0.0938
      6 C         138.4717  140.2743  165.1674 C.3     1  UNL1        0.1081
      7 F         140.0509  142.7563  171.3799 F       1  UNL1       -0.2042
      8 C         139.9524  142.0735  170.0480 C.ar    1  UNL1        0.1402
      9 C         139.3810  140.6898  169.9549 C.ar    1  UNL1        0.0309
     10 C         139.2826  140.0071  168.6229 C.ar    1  UNL1        0.0168
     11 C         139.7556  140.7081  167.3840 C.ar    1  UNL1        0.0480
     12 C         140.3270  142.0919  167.4771 C.ar    1  UNL1        0.0156
     13 C         140.4255  142.7746  168.8091 C.ar    1  UNL1        0.0309
     14 C         140.8001  142.7929  166.2383 C.ar    1  UNL1        0.0013
     15 C         139.8642  143.6845  165.4773 C.ar    1  UNL1        0.0000
     16 C         140.3372  144.3855  164.2384 C.ar    1  UNL1        0.0000
     17 C         141.7462  144.1949  163.7606 C.ar    1  UNL1        0.0000
     18 C         142.6822  143.3033  164.5215 C.ar    1  UNL1        0.0000
     19 C         142.2091  142.6023  165.7604 C.ar    1  UNL1        0.0000
     20 C         139.3619  137.9769  162.0562 C.3     1  UNL1        0.0725
     21 C         139.8439  138.6741  160.8186 C.3     1  UNL1        0.0221
     22 C         141.2181  138.3937  160.2867 C.3     1  UNL1        0.0294
     23 C         142.4241  138.9033  161.0188 C.2     1  UNL1       -0.0018
     24 C         143.3379  138.0896  161.8864 C.2     1  UNL1        0.0942
     25 N         144.4066  138.9995  162.4155 N.2     1  UNL1       -0.2482
     26 C         144.1533  140.3756  161.8749 C.2     1  UNL1        0.0632
     27 C         144.8800  141.6751  162.0571 C.3     1  UNL1        0.0741
     28 C         144.3814  142.9150  161.3761 C.2     1  UNL1        0.0098
     29 C         143.1562  142.8556  160.5128 C.2     1  UNL1        0.1363
     30 F         142.6576  144.0956  159.8318 F       1  UNL1       -0.2045
     31 C         142.4295  141.5561  160.3306 C.2     1  UNL1        0.0302
     32 C         142.9280  140.3161  161.0116 C.2     1  UNL1        0.0136
@<TRIPOS>BOND
     1     7     8    1
     2     8     9   ar
     3     9    10   ar
     4    10    11   ar
     5    11     1    1
     6     1     2    1
     7     2     3    1
     8     3     4    1
     9     4    20    1
    10    20    21    1
    11    21    22    1
    12    22    23    1
    13    23    24    2
    14    24    25    1
    15    25    26    2
    16    26    27    1
    17    27    28    1
    18    28    29    2
    19    29    30    1
    20    29    31    1
    21    31    32    2
    22     4     5    1
    23     5     6    1
    24    11    12   ar
    25    12    14    1
    26    14    15   ar
    27    15    16   ar
    28    16    17   ar
    29    17    18   ar
    30    18    19   ar
    31    12    13   ar
    32    13     8   ar
    33     6     1    1
    34    19    14   ar
    35    32    23    1
    36    32    26    1
@<TRIPOS>MOLECULE
*****
 32 36 0 0 0
SMALL
GASTEIGER

@<TRIPOS>ATOM
      1 N         142.4083  139.5965  165.9046 N.pl3   1  UNL1       -0.3046
      2 C         142.0182  138.4235  165.0548 C.3     1  UNL1        0.1081
      3 C         142.5529  138.2977  163.6590 C.3     1  UNL1        0.0938
      4 N         143.4776  139.3449  163.1129 N.3     1  UNL1       -0.2698
      5 C         143.8677  140.5179  163.9626 C.3     1  UNL1        0.0938
      6 C         143.3330  140.6437  165.3585 C.3     1  UNL1        0.1081
      7 F         140.2696  140.0992  171.4878 F       1  UNL1       -0.2042
      8 C         140.8043  139.9735  170.0921 C.ar    1  UNL1        0.1402
      9 C         142.1278  139.3093  169.8528 C.ar    1  UNL1        0.0309
     10 C         142.6624  139.1836  168.4570 C.ar    1  UNL1        0.0168
     11 C         141.8736  139.7222  167.3004 C.ar    1  UNL1        0.0480
     12 C         140.5501  140.3864  167.5396 C.ar    1  UNL1        0.0156
     13 C         140.0155  140.5121  168.9355 C.ar    1  UNL1        0.0309
     14 C         139.7613  140.9249  166.3830 C.ar    1  UNL1        0.0013
     15 C         139.9559  142.3442  165.9384 C.ar    1  UNL1        0.0000
     16 C         139.1670  142.8827  164.7818 C.ar    1  UNL1        0.0000
     17 C         138.1836  142.0019  164.0699 C.ar    1  UNL1        0.0000
     18 C         137.9889  140.5826  164.5145 C.ar    1  UNL1        0.0000
     19 C         138.7777  140.0441  165.6711 C.ar    1  UNL1        0.0000
     20 C         144.0123  139.2192  161.7172 C.3     1  UNL1        0.0725
     21 C         143.3019  139.8895  160.5787 C.3     1  UNL1        0.0221
     22 C         143.4655  141.3640  160.3566 C.3     1  UNL1        0.0294
     23 C         142.3370  142.3000  160.6735 C.2     1  UNL1       -0.0018
     24 C         141.0038  142.3380  159.9870 C.2     1  UNL1        0.0942
     25 N         140.1864  143.4237  160.6218 N.2     1  UNL1       -0.2482
     26 C         141.0144  144.0568  161.7005 C.2     1  UNL1        0.0632
     27 C         140.7297  145.1760  162.6578 C.3     1  UNL1        0.0741
     28 C         141.7743  145.6006  163.6471 C.2     1  UNL1        0.0098
     29 C         143.1034  144.9061  163.6790 C.2     1  UNL1        0.1363
     30 F         144.1479  145.3307  164.6683 F       1  UNL1       -0.2045
     31 C         143.3880  143.7869  162.7217 C.2     1  UNL1        0.0302
     32 C         142.3435  143.3623  161.7325 C.2     1  UNL1        0.0136
@<TRIPOS>BOND
     1     7     8    1
     2     8     9   ar
     3     9    10   ar
     4    10    11   ar
     5    11     1    1
     6     1     2    1
     7     2     3    1
     8     3     4    1
     9     4    20    1
    10    20    21    1
    11    21    22    1
    12    22    23    1
    13    23    24    2
    14    24    25    1
    15    25    26    2
    16    26    27    1
    17    27    28    1
    18    28    29    2
    19    29    30    1
    20    29    31    1
    21    31    32    2
    22     4     5    1
    23     5     6    1
    24    11    12   ar
    25    12    14    1
    26    14    15   ar
    27    15    16   ar
    28    16    17   ar
    29    17    18   ar
    30    18    19   ar
    31    12    13   ar
    32    13     8   ar
    33     6     1    1
    34    19    14   ar
    35    32    23    1
    36    32    26    1
@<TRIPOS>MOLECULE
*****
 32 36 0 0 0
SMALL
GASTEIGER

@<TRIPOS>ATOM
      1 N         139.7220  140.0162  166.0250 N.pl3   1  UNL1       -0.3046
      2 C         140.8817  139.2070  165.5247 C.3     1  UNL1        0.1081
      3 C         140.7886  138.4984  164.2060 C.3     1  UNL1        0.0938
      4 N         139.5356  138.5988  163.3875 N.3     1  UNL1       -0.2698
      5 C         138.3759  139.4080  163.8876 C.3     1  UNL1        0.0938
      6 C         138.4690  140.1167  165.2065 C.3     1  UNL1        0.1081
      7 F         140.0949  142.8507  171.3000 F       1  UNL1       -0.2042
      8 C         140.0017  142.1420  169.9813 C.ar    1  UNL1        0.1402
      9 C         139.4900  140.7333  169.9213 C.ar    1  UNL1        0.0309
     10 C         139.3968  140.0247  168.6026 C.ar    1  UNL1        0.0168
     11 C         139.8152  140.7249  167.3437 C.ar    1  UNL1        0.0480
     12 C         140.3269  142.1336  167.4037 C.ar    1  UNL1        0.0156
     13 C         140.4201  142.8422  168.7224 C.ar    1  UNL1        0.0309
     14 C         140.7454  142.8338  166.1448 C.ar    1  UNL1        0.0013
     15 C         139.7627  143.6868  165.3989 C.ar    1  UNL1        0.0000
     16 C         140.1811  144.3870  164.1400 C.ar    1  UNL1        0.0000
     17 C         141.5824  144.2341  163.6272 C.ar    1  UNL1        0.0000
     18 C         142.5652  143.3811  164.3732 C.ar    1  UNL1        0.0000
     19 C         142.1467  142.6809  165.6320 C.ar    1  UNL1        0.0000
     20 C         139.4424  137.8902  162.0687 C.3     1  UNL1        0.0725
     21 C         138.9514  138.6240  160.8561 C.3     1  UNL1        0.0221
     22 C         139.7935  139.7014  160.2394 C.3     1  UNL1        0.0294
     23 C         139.4508  141.1439  160.4671 C.2     1  UNL1       -0.0018
     24 C         138.2136  141.6606  161.1398 C.2     1  UNL1        0.0942
     25 N         138.2833  143.1589  161.1506 N.2     1  UNL1       -0.2482
     26 C         139.5635  143.5682  160.4846 C.2     1  UNL1        0.0632
     27 C         140.1654  144.9140  160.2082 C.3     1  UNL1        0.0741
     28 C         141.4889  145.0145  159.5094 C.2     1  UNL1        0.0098
     29 C         142.2104  143.7691  159.0870 C.2     1  UNL1        0.1363
     30 F         143.5339  143.8696  158.3881 F       1  UNL1       -0.2045
     31 C         141.6085  142.4233  159.3634 C.2     1  UNL1        0.0302
     32 C         140.2851  142.3229  160.0622 C.2     1  UNL1        0.0136
@<TRIPOS>BOND
     1     7     8    1
     2     8     9   ar
     3     9    10   ar
     4    10    11   ar
     5    11     1    1
     6     1     2    1
     7     2     3    1
     8     3     4    1
     9     4    20    1
    10    20    21    1
    11    21    22    1
    12    22    23    1
    13    23    24    2
    14    24    25    1
    15    25    26    2
    16    26    27    1
    17    27    28    1
    18    28    29    2
    19    29    30    1
    20    29    31    1
    21    31    32    2
    22     4     5    1
    23     5     6    1
    24    11    12   ar
    25    12    14    1
    26    14    15   ar
    27    15    16   ar
    28    16    17   ar
    29    17    18   ar
    30    18    19   ar
    31    12    13   ar
    32    13     8   ar
    33     6     1    1
    34    19    14   ar
    35    32    23    1
    36    32    26    1
@<TRIPOS>MOLECULE
*****
 32 36 0 0 0
SMALL
GASTEIGER

@<TRIPOS>ATOM
      1 N         141.4234  142.5317  166.5651 N.pl3   1  UNL1       -0.3046
      2 C         140.0538  143.1410  166.6193 C.3     1  UNL1        0.1081
      3 C         139.5182  143.8890  165.4346 C.3     1  UNL1        0.0938
      4 N         140.3522  144.0278  164.1956 N.3     1  UNL1       -0.2698
      5 C         141.7218  143.4185  164.1413 C.3     1  UNL1        0.0938
      6 C         142.2574  142.6704  165.3261 C.3     1  UNL1        0.1081
      7 F         143.5655  139.5399  171.3042 F       1  UNL1       -0.2042
      8 C         143.0300  140.2879  170.1195 C.ar    1  UNL1        0.1402
      9 C         143.4570  141.7042  169.8711 C.ar    1  UNL1        0.0309
     10 C         142.9214  142.4521  168.6863 C.ar    1  UNL1        0.0168
     11 C         141.9589  141.7837  167.7499 C.ar    1  UNL1        0.0480
     12 C         141.5320  140.3674  167.9983 C.ar    1  UNL1        0.0156
     13 C         142.0676  139.6195  169.1831 C.ar    1  UNL1        0.0309
     14 C         140.5695  139.6990  167.0619 C.ar    1  UNL1        0.0013
     15 C         139.1068  139.6599  167.3917 C.ar    1  UNL1        0.0000
     16 C         138.1443  138.9915  166.4553 C.ar    1  UNL1        0.0000
     17 C         138.6447  138.3621  165.1890 C.ar    1  UNL1        0.0000
     18 C         140.1074  138.4011  164.8591 C.ar    1  UNL1        0.0000
     19 C         141.0699  139.0695  165.7955 C.ar    1  UNL1        0.0000
     20 C         139.8167  144.7757  163.0108 C.3     1  UNL1        0.0725
     21 C         139.2049  144.0261  161.8646 C.3     1  UNL1        0.0221
     22 C         140.0572  143.1335  161.0119 C.3     1  UNL1        0.0294
     23 C         139.7984  141.6563  160.9802 C.2     1  UNL1       -0.0018
     24 C         138.5123  140.9948  160.5823 C.2     1  UNL1        0.0942
     25 N         138.6995  139.5110  160.6970 N.2     1  UNL1       -0.2482
     26 C         140.1013  139.2554  161.1659 C.2     1  UNL1        0.0632
     27 C         140.8469  137.9867  161.4560 C.3     1  UNL1        0.0741
     28 C         142.2718  138.0439  161.9211 C.2     1  UNL1        0.0098
     29 C         142.9510  139.3698  162.0962 C.2     1  UNL1        0.1363
     30 F         144.3760  139.4269  162.5614 F       1  UNL1       -0.2045
     31 C         142.2053  140.6385  161.8060 C.2     1  UNL1        0.0302
     32 C         140.7805  140.5813  161.3409 C.2     1  UNL1        0.0136
@<TRIPOS>BOND
     1     7     8    1
     2     8     9   ar
     3     9    10   ar
     4    10    11   ar
     5    11     1    1
     6     1     2    1
     7     2     3    1
     8     3     4    1
     9     4    20    1
    10    20    21    1
    11    21    22    1
    12    22    23    1
    13    23    24    2
    14    24    25    1
    15    25    26    2
    16    26    27    1
    17    27    28    1
    18    28    29    2
    19    29    30    1
    20    29    31    1
    21    31    32    2
    22     4     5    1
    23     5     6    1
    24    11    12   ar
    25    12    14    1
    26    14    15   ar
    27    15    16   ar
    28    16    17   ar
    29    17    18   ar
    30    18    19   ar
    31    12    13   ar
    32    13     8   ar
    33     6     1    1
    34    19    14   ar
    35    32    23    1
    36    32    26    1
@<TRIPOS>MOLECULE
*****
 32 36 0 0 0
SMALL
GASTEIGER

@<TRIPOS>ATOM
      1 N         140.9620  141.4135  165.6129 N.pl3   1  UNL1       -0.3046
      2 C         140.6632  142.8523  165.3117 C.3     1  UNL1        0.1081
      3 C         141.7203  143.7269  164.7055 C.3     1  UNL1        0.0938
      4 N         143.0763  143.1628  164.4004 N.3     1  UNL1       -0.2698
      5 C         143.3751  141.7240  164.7015 C.3     1  UNL1        0.0938
      6 C         142.3179  140.8494  165.3078 C.3     1  UNL1        0.1081
      7 F         136.7333  137.9153  168.0377 F       1  UNL1       -0.2042
      8 C         137.7904  138.7898  167.4315 C.ar    1  UNL1        0.1402
      9 C         137.9286  138.8756  165.9403 C.ar    1  UNL1        0.0309
     10 C         138.9858  139.7502  165.3341 C.ar    1  UNL1        0.0168
     11 C         139.9048  140.5390  166.2191 C.ar    1  UNL1        0.0480
     12 C         139.7666  140.4532  167.7103 C.ar    1  UNL1        0.0156
     13 C         138.7095  139.5786  168.3164 C.ar    1  UNL1        0.0309
     14 C         140.6857  141.2420  168.5953 C.ar    1  UNL1        0.0013
     15 C         140.3152  142.6352  169.0095 C.ar    1  UNL1        0.0000
     16 C         141.2342  143.4240  169.8945 C.ar    1  UNL1        0.0000
     17 C         142.5237  142.8195  170.3652 C.ar    1  UNL1        0.0000
     18 C         142.8943  141.4263  169.9510 C.ar    1  UNL1        0.0000
     19 C         141.9753  140.6375  169.0660 C.ar    1  UNL1        0.0000
     20 C         144.1334  144.0373  163.7941 C.3     1  UNL1        0.0725
     21 C         144.1226  144.3147  162.3200 C.3     1  UNL1        0.0221
     22 C         143.3559  143.4179  161.3937 C.3     1  UNL1        0.0294
     23 C         141.8885  143.6412  161.1776 C.2     1  UNL1       -0.0018
     24 C         141.2448  144.9302  160.7604 C.2     1  UNL1        0.0942
     25 N         139.7656  144.7003  160.6658 N.2     1  UNL1       -0.2482
     26 C         139.4950  143.2691  161.0245 C.2     1  UNL1        0.0632
     27 C         138.2234  142.4775  161.1040 C.3     1  UNL1        0.0741
     28 C         138.2640  141.0312  161.4998 C.2     1  UNL1        0.0098
     29 C         139.5760  140.3767  161.8162 C.2     1  UNL1        0.1363
     30 F         139.6165  138.9303  162.2120 F       1  UNL1       -0.2045
     31 C         140.8476  141.1683  161.7367 C.2     1  UNL1        0.0302
     32 C         140.8070  142.6146  161.3409 C.2     1  UNL1        0.0136
@<TRIPOS>BOND
     1     7     8    1
     2     8     9   ar
     3     9    10   ar
     4    10    11   ar
     5    11     1    1
     6     1     2    1
     7     2     3    1
     8     3     4    1
     9     4    20    1
    10    20    21    1
    11    21    22    1
    12    22    23    1
    13    23    24    2
    14    24    25    1
    15    25    26    2
    16    26    27    1
    17    27    28    1
    18    28    29    2
    19    29    30    1
    20    29    31    1
    21    31    32    2
    22     4     5    1
    23     5     6    1
    24    11    12   ar
    25    12    14    1
    26    14    15   ar
    27    15    16   ar
    28    16    17   ar
    29    17    18   ar
    30    18    19   ar
    31    12    13   ar
    32    13     8   ar
    33     6     1    1
    34    19    14   ar
    35    32    23    1
    36    32    26    1
@<TRIPOS>MOLECULE
*****
 32 36 0 0 0
SMALL
GASTEIGER

@<TRIPOS>ATOM
      1 N         140.1736  142.2366  166.0388 N.pl3   1  UNL1       -0.3046
      2 C         140.2355  143.2389  164.9246 C.3     1  UNL1        0.1081
      3 C         139.4919  142.9867  163.6465 C.3     1  UNL1        0.0938
      4 N         138.6863  141.7321  163.4827 N.3     1  UNL1       -0.2698
      5 C         138.6243  140.7297  164.5969 C.3     1  UNL1        0.0938
      6 C         139.3679  140.9819  165.8750 C.3     1  UNL1        0.1081
      7 F         143.1481  143.2459  171.1508 F       1  UNL1       -0.2042
      8 C         142.4044  142.9936  169.8728 C.ar    1  UNL1        0.1402
      9 C         140.9796  143.4411  169.7333 C.ar    1  UNL1        0.0309
     10 C         140.2360  143.1888  168.4552 C.ar    1  UNL1        0.0168
     11 C         140.9172  142.4889  167.3168 C.ar    1  UNL1        0.0480
     12 C         142.3421  142.0413  167.4564 C.ar    1  UNL1        0.0156
     13 C         143.0857  142.2937  168.7344 C.ar    1  UNL1        0.0309
     14 C         143.0233  141.3414  166.3180 C.ar    1  UNL1        0.0013
     15 C         143.8318  142.1284  165.3297 C.ar    1  UNL1        0.0000
     16 C         144.5131  141.4285  164.1912 C.ar    1  UNL1        0.0000
     17 C         144.3858  139.9415  164.0412 C.ar    1  UNL1        0.0000
     18 C         143.5773  139.1544  165.0295 C.ar    1  UNL1        0.0000
     19 C         142.8960  139.8543  166.1679 C.ar    1  UNL1        0.0000
     20 C         137.9426  141.4798  162.2047 C.3     1  UNL1        0.0725
     21 C         138.4368  142.0747  160.9195 C.3     1  UNL1        0.0221
     22 C         138.8620  141.1796  159.7933 C.3     1  UNL1        0.0294
     23 C         140.3119  140.8417  159.6102 C.2     1  UNL1       -0.0018
     24 C         141.2575  141.5042  158.6525 C.2     1  UNL1        0.0942
     25 N         142.6008  140.8540  158.8031 N.2     1  UNL1       -0.2482
     26 C         142.4855  139.7897  159.8538 C.2     1  UNL1        0.0632
     27 C         143.4858  138.8265  160.4208 C.3     1  UNL1        0.0741
     28 C         143.0716  137.8557  161.4866 C.2     1  UNL1        0.0098
     29 C         141.6570  137.8482  161.9854 C.2     1  UNL1        0.1363
     30 F         141.2427  136.8773  163.0512 F       1  UNL1       -0.2045
     31 C         140.6566  138.8113  161.4184 C.2     1  UNL1        0.0302
     32 C         141.0709  139.7821  160.3526 C.2     1  UNL1        0.0136
@<TRIPOS>BOND
     1     7     8    1
     2     8     9   ar
     3     9    10   ar
     4    10    11   ar
     5    11     1    1
     6     1     2    1
     7     2     3    1
     8     3     4    1
     9     4    20    1
    10    20    21    1
    11    21    22    1
    12    22    23    1
    13    23    24    2
    14    24    25    1
    15    25    26    2
    16    26    27    1
    17    27    28    1
    18    28    29    2
    19    29    30    1
    20    29    31    1
    21    31    32    2
    22     4     5    1
    23     5     6    1
    24    11    12   ar
    25    12    14    1
    26    14    15   ar
    27    15    16   ar
    28    16    17   ar
    29    17    18   ar
    30    18    19   ar
    31    12    13   ar
    32    13     8   ar
    33     6     1    1
    34    19    14   ar
    35    32    23    1
    36    32    26    1
