@<TRIPOS>MOLECULE
*****
 25 27 0 0 0
SMALL
GASTEIGER

@<TRIPOS>ATOM
      1 C         141.6165  139.8302  165.3101 C.3     1  UNL1        0.1389
      2 O         142.2303  139.5035  166.6392 O.3     1  UNL1       -0.3773
      3 H         143.1442  139.8280  166.6619 H       1  UNL1        0.2112
      4 C         142.8985  140.4778  164.8773 C.ar    1  UNL1        0.0068
      5 C         142.9941  141.9726  164.7979 C.ar    1  UNL1       -0.0017
      6 C         144.2760  142.6202  164.3651 C.ar    1  UNL1       -0.0002
      7 C         145.4623  141.7730  164.0116 C.ar    1  UNL1       -0.0000
      8 C         145.3666  140.2782  164.0910 C.ar    1  UNL1       -0.0002
      9 C         144.0847  139.6306  164.5239 C.ar    1  UNL1       -0.0017
     10 C         140.3346  139.1826  165.7429 C.ar    1  UNL1        0.0068
     11 C         139.8791  137.9110  165.0906 C.ar    1  UNL1       -0.0017
     12 C         138.5972  137.2634  165.5234 C.ar    1  UNL1       -0.0002
     13 C         137.7708  137.8874  166.6086 C.ar    1  UNL1       -0.0000
     14 C         138.2263  139.1589  167.2610 C.ar    1  UNL1       -0.0002
     15 C         139.5082  139.8065  166.8281 C.ar    1  UNL1       -0.0017
     16 C         141.0028  140.1568  163.9810 C.3     1  UNL1        0.0902
     17 N         139.8515  141.1151  163.9017 N.3     1  UNL1       -0.2671
     18 C         139.9688  142.4804  164.5117 C.3     1  UNL1        0.1047
     19 C         138.8175  143.4387  164.4325 C.3     1  UNL1        0.1595
     20 O         137.5490  143.0316  163.7432 O.3     1  UNL1       -0.3508
     21 C         137.4317  141.6663  163.1332 C.3     1  UNL1        0.1595
     22 C         138.5829  140.7081  163.2125 C.3     1  UNL1        0.1047
     23 C         141.8092  138.1105  162.3112 C.3     1  UNL1        0.0015
     24 C         141.5402  139.5252  162.7312 C.3     1  UNL1        0.0176
     25 C         141.9346  140.3842  161.5665 C.3     1  UNL1        0.0015
@<TRIPOS>BOND
     1    23    24    1
     2    24    25    1
     3    24    16    1
     4    16    17    1
     5    17    18    1
     6    18    19    1
     7    19    20    1
     8    20    21    1
     9    21    22    1
    10    16     1    1
    11     1     2    1
    12     1     4    1
    13     4     5   ar
    14     5     6   ar
    15     6     7   ar
    16     7     8   ar
    17     8     9   ar
    18     1    10    1
    19    10    11   ar
    20    11    12   ar
    21    12    13   ar
    22    13    14   ar
    23    14    15   ar
    24    22    17    1
    25     9     4   ar
    26    15    10   ar
    27     2     3    1
@<TRIPOS>MOLECULE
*****
 25 27 0 0 0
SMALL
GASTEIGER

@<TRIPOS>ATOM
      1 C         141.6189  139.8333  165.3108 C.3     1  UNL1        0.1389
      2 O         142.2345  139.5013  166.6377 O.3     1  UNL1       -0.3773
      3 H         141.5854  139.0353  167.1877 H       1  UNL1        0.2112
      4 C         140.3367  139.1865  165.7437 C.ar    1  UNL1        0.0068
      5 C         139.5140  139.8075  166.8335 C.ar    1  UNL1       -0.0017
      6 C         138.2318  139.1607  167.2665 C.ar    1  UNL1       -0.0002
      7 C         137.7722  137.8929  166.6097 C.ar    1  UNL1       -0.0000
      8 C         138.5948  137.2719  165.5200 C.ar    1  UNL1       -0.0002
      9 C         139.8771  137.9187  165.0870 C.ar    1  UNL1       -0.0017
     10 C         142.9012  140.4801  164.8778 C.ar    1  UNL1        0.0068
     11 C         142.9977  141.9749  164.7982 C.ar    1  UNL1       -0.0017
     12 C         144.2799  142.6217  164.3652 C.ar    1  UNL1       -0.0002
     13 C         145.4657  141.7737  164.0118 C.ar    1  UNL1       -0.0000
     14 C         145.3692  140.2790  164.0914 C.ar    1  UNL1       -0.0002
     15 C         144.0869  139.6322  164.5244 C.ar    1  UNL1       -0.0017
     16 C         141.0033  140.1654  163.9838 C.3     1  UNL1        0.0902
     17 N         139.8542  141.1268  163.9097 N.3     1  UNL1       -0.2671
     18 C         139.9736  142.4874  164.5295 C.3     1  UNL1        0.1047
     19 C         138.8245  143.4487  164.4553 C.3     1  UNL1        0.1595
     20 O         137.5561  143.0493  163.7613 O.3     1  UNL1       -0.3508
     21 C         137.4368  141.6886  163.1414 C.3     1  UNL1        0.1595
     22 C         138.5859  140.7273  163.2156 C.3     1  UNL1        0.1047
     23 C         141.7988  138.1219  162.3053 C.3     1  UNL1        0.0015
     24 C         141.5368  139.5361  162.7311 C.3     1  UNL1        0.0176
     25 C         141.9343  140.3979  161.5695 C.3     1  UNL1        0.0015
@<TRIPOS>BOND
     1    23    24    1
     2    24    25    1
     3    24    16    1
     4    16    17    1
     5    17    18    1
     6    18    19    1
     7    19    20    1
     8    20    21    1
     9    21    22    1
    10    16     1    1
    11     1     2    1
    12     1     4    1
    13     4     5   ar
    14     5     6   ar
    15     6     7   ar
    16     7     8   ar
    17     8     9   ar
    18     1    10    1
    19    10    11   ar
    20    11    12   ar
    21    12    13   ar
    22    13    14   ar
    23    14    15   ar
    24    22    17    1
    25     9     4   ar
    26    15    10   ar
    27     2     3    1
@<TRIPOS>MOLECULE
*****
 25 27 0 0 0
SMALL
GASTEIGER

@<TRIPOS>ATOM
      1 C         141.6834  140.2095  165.5132 C.3     1  UNL1        0.1389
      2 O         142.4352  139.4020  166.5294 O.3     1  UNL1       -0.3773
      3 H         141.8098  138.8738  167.0496 H       1  UNL1        0.2112
      4 C         140.3917  139.6285  166.0071 C.ar    1  UNL1        0.0068
      5 C         139.8252  140.0710  167.3236 C.ar    1  UNL1       -0.0017
      6 C         138.5335  139.4900  167.8176 C.ar    1  UNL1       -0.0002
      7 C         137.8084  138.4665  166.9951 C.ar    1  UNL1       -0.0000
      8 C         138.3749  138.0240  165.6786 C.ar    1  UNL1       -0.0002
      9 C         139.6666  138.6050  165.1846 C.ar    1  UNL1       -0.0017
     10 C         142.9751  140.7905  165.0192 C.ar    1  UNL1        0.0068
     11 C         143.3051  142.2275  165.2950 C.ar    1  UNL1       -0.0017
     12 C         144.5968  142.8085  164.8010 C.ar    1  UNL1       -0.0002
     13 C         145.5584  141.9526  164.0312 C.ar    1  UNL1       -0.0000
     14 C         145.2283  140.5156  163.7554 C.ar    1  UNL1       -0.0002
     15 C         143.9367  139.9346  164.2494 C.ar    1  UNL1       -0.0017
     16 C         140.9315  141.0170  164.4969 C.3     1  UNL1        0.0902
     17 N         141.1348  140.7577  163.0335 N.3     1  UNL1       -0.2671
     18 C         141.5218  141.8821  162.1193 C.3     1  UNL1        0.1047
     19 C         141.7250  141.6228  160.6559 C.3     1  UNL1        0.1595
     20 O         141.5411  140.2391  160.1068 O.3     1  UNL1       -0.3508
     21 C         141.1541  139.1147  161.0211 C.3     1  UNL1        0.1595
     22 C         140.9509  139.3740  162.4844 C.3     1  UNL1        0.1047
     23 C         140.0928  143.2729  165.8509 C.3     1  UNL1        0.0015
     24 C         139.9765  142.0838  164.9441 C.3     1  UNL1        0.0176
     25 C         138.5603  142.0776  164.4499 C.3     1  UNL1        0.0015
@<TRIPOS>BOND
     1    23    24    1
     2    24    25    1
     3    24    16    1
     4    16    17    1
     5    17    18    1
     6    18    19    1
     7    19    20    1
     8    20    21    1
     9    21    22    1
    10    16     1    1
    11     1     2    1
    12     1     4    1
    13     4     5   ar
    14     5     6   ar
    15     6     7   ar
    16     7     8   ar
    17     8     9   ar
    18     1    10    1
    19    10    11   ar
    20    11    12   ar
    21    12    13   ar
    22    13    14   ar
    23    14    15   ar
    24    22    17    1
    25     9     4   ar
    26    15    10   ar
    27     2     3    1
@<TRIPOS>MOLECULE
*****
 25 27 0 0 0
SMALL
GASTEIGER

@<TRIPOS>ATOM
      1 C         141.6824  140.2054  165.5121 C.3     1  UNL1        0.1389
      2 O         142.4337  139.4003  166.5306 O.3     1  UNL1       -0.3773
      3 H         143.3833  139.5801  166.4484 H       1  UNL1        0.2112
      4 C         142.9743  140.7850  165.0172 C.ar    1  UNL1        0.0068
      5 C         143.9352  139.9275  164.2482 C.ar    1  UNL1       -0.0017
      6 C         145.2272  140.5071  163.7533 C.ar    1  UNL1       -0.0002
      7 C         145.5583  141.9442  164.0275 C.ar    1  UNL1       -0.0000
      8 C         144.5974  142.8016  164.7965 C.ar    1  UNL1       -0.0002
      9 C         143.3054  142.2220  165.2914 C.ar    1  UNL1       -0.0017
     10 C         140.3904  139.6258  166.0070 C.ar    1  UNL1        0.0068
     11 C         139.6640  138.6025  165.1853 C.ar    1  UNL1       -0.0017
     12 C         138.3720  138.0229  165.6802 C.ar    1  UNL1       -0.0002
     13 C         137.8065  138.4665  166.9967 C.ar    1  UNL1       -0.0000
     14 C         138.5330  139.4898  167.8184 C.ar    1  UNL1       -0.0002
     15 C         139.8249  140.0694  167.3236 C.ar    1  UNL1       -0.0017
     16 C         140.9311  141.0105  164.4936 C.3     1  UNL1        0.0902
     17 N         141.1371  140.7497  163.0309 N.3     1  UNL1       -0.2671
     18 C         141.5288  141.8726  162.1168 C.3     1  UNL1        0.1047
     19 C         141.7349  141.6118  160.6541 C.3     1  UNL1        0.1595
     20 O         141.5493  140.2281  160.1055 O.3     1  UNL1       -0.3508
     21 C         141.1576  139.1052  161.0196 C.3     1  UNL1        0.1595
     22 C         140.9515  139.3660  162.4823 C.3     1  UNL1        0.1047
     23 C         140.0867  143.2669  165.8433 C.3     1  UNL1        0.0015
     24 C         139.9737  142.0763  164.9378 C.3     1  UNL1        0.0176
     25 C         138.5583  142.0674  164.4414 C.3     1  UNL1        0.0015
@<TRIPOS>BOND
     1    23    24    1
     2    24    25    1
     3    24    16    1
     4    16    17    1
     5    17    18    1
     6    18    19    1
     7    19    20    1
     8    20    21    1
     9    21    22    1
    10    16     1    1
    11     1     2    1
    12     1     4    1
    13     4     5   ar
    14     5     6   ar
    15     6     7   ar
    16     7     8   ar
    17     8     9   ar
    18     1    10    1
    19    10    11   ar
    20    11    12   ar
    21    12    13   ar
    22    13    14   ar
    23    14    15   ar
    24    22    17    1
    25     9     4   ar
    26    15    10   ar
    27     2     3    1
@<TRIPOS>MOLECULE
*****
 25 27 0 0 0
SMALL
GASTEIGER

@<TRIPOS>ATOM
      1 C         140.2215  142.0582  166.2491 C.3     1  UNL1        0.1389
      2 O         140.1298  143.2012  167.2161 O.3     1  UNL1       -0.3773
      3 H         139.7707  143.9801  166.7630 H       1  UNL1        0.2112
      4 C         139.6649  142.9317  165.1640 C.ar    1  UNL1        0.0068
      5 C         140.4924  144.0498  164.6028 C.ar    1  UNL1       -0.0017
      6 C         139.9359  144.9232  163.5177 C.ar    1  UNL1       -0.0002
      7 C         138.5518  144.6785  162.9938 C.ar    1  UNL1       -0.0000
      8 C         137.7244  143.5603  163.5550 C.ar    1  UNL1       -0.0002
      9 C         138.2809  142.6869  164.6401 C.ar    1  UNL1       -0.0017
     10 C         140.7780  141.1848  167.3342 C.ar    1  UNL1        0.0068
     11 C         139.9284  140.8245  168.5166 C.ar    1  UNL1       -0.0017
     12 C         140.4850  139.9511  169.6017 C.ar    1  UNL1       -0.0002
     13 C         141.8911  139.4380  169.5043 C.ar    1  UNL1       -0.0000
     14 C         142.7407  139.7984  168.3218 C.ar    1  UNL1       -0.0002
     15 C         142.1841  140.6718  167.2367 C.ar    1  UNL1       -0.0017
     16 C         140.3132  140.9153  165.2820 C.3     1  UNL1        0.0902
     17 N         141.2229  141.0099  164.0931 N.3     1  UNL1       -0.2671
     18 C         142.6841  141.2877  164.2870 C.3     1  UNL1        0.1047
     19 C         143.5938  141.3823  163.0981 C.3     1  UNL1        0.1595
     20 O         143.0422  141.1992  161.7153 O.3     1  UNL1       -0.3508
     21 C         141.5810  140.9215  161.5213 C.3     1  UNL1        0.1595
     22 C         140.6714  140.8269  162.7102 C.3     1  UNL1        0.1047
     23 C         138.0804  139.4271  165.9344 C.3     1  UNL1        0.0015
     24 C         139.4952  139.6777  165.5038 C.3     1  UNL1        0.0176
     25 C         140.1055  138.3255  165.2820 C.3     1  UNL1        0.0015
@<TRIPOS>BOND
     1    23    24    1
     2    24    25    1
     3    24    16    1
     4    16    17    1
     5    17    18    1
     6    18    19    1
     7    19    20    1
     8    20    21    1
     9    21    22    1
    10    16     1    1
    11     1     2    1
    12     1     4    1
    13     4     5   ar
    14     5     6   ar
    15     6     7   ar
    16     7     8   ar
    17     8     9   ar
    18     1    10    1
    19    10    11   ar
    20    11    12   ar
    21    12    13   ar
    22    13    14   ar
    23    14    15   ar
    24    22    17    1
    25     9     4   ar
    26    15    10   ar
    27     2     3    1
@<TRIPOS>MOLECULE
*****
 25 27 0 0 0
SMALL
GASTEIGER

@<TRIPOS>ATOM
      1 C         140.2169  142.0427  166.2397 C.3     1  UNL1        0.1389
      2 O         140.1311  143.1822  167.2113 O.3     1  UNL1       -0.3773
      3 H         140.4556  142.8929  168.0784 H       1  UNL1        0.2112
      4 C         140.7796  141.1653  167.3184 C.ar    1  UNL1        0.0068
      5 C         142.1733  140.6248  167.1947 C.ar    1  UNL1       -0.0017
      6 C         142.7360  139.7474  168.2734 C.ar    1  UNL1       -0.0002
      7 C         141.9049  139.4105  169.4758 C.ar    1  UNL1       -0.0000
      8 C         140.5112  139.9510  169.5995 C.ar    1  UNL1       -0.0002
      9 C         139.9485  140.8284  168.5208 C.ar    1  UNL1       -0.0017
     10 C         139.6543  142.9200  165.1610 C.ar    1  UNL1        0.0068
     11 C         140.4771  144.0427  164.6020 C.ar    1  UNL1       -0.0017
     12 C         139.9145  144.9201  163.5233 C.ar    1  UNL1       -0.0002
     13 C         138.5290  144.6748  163.0036 C.ar    1  UNL1       -0.0000
     14 C         137.7061  143.5521  163.5625 C.ar    1  UNL1       -0.0002
     15 C         138.2688  142.6748  164.6413 C.ar    1  UNL1       -0.0017
     16 C         140.3028  140.9031  165.2681 C.3     1  UNL1        0.0902
     17 N         141.2045  141.0025  164.0734 N.3     1  UNL1       -0.2671
     18 C         140.6439  140.8233  162.6937 C.3     1  UNL1        0.1047
     19 C         141.5456  140.9226  161.4991 C.3     1  UNL1        0.1595
     20 O         143.0078  141.2011  161.6842 O.3     1  UNL1       -0.3508
     21 C         143.5684  141.3803  163.0639 C.3     1  UNL1        0.1595
     22 C         142.6667  141.2810  164.2585 C.3     1  UNL1        0.1047
     23 C         138.0771  139.4112  165.9361 C.3     1  UNL1        0.0015
     24 C         139.4870  139.6643  165.4910 C.3     1  UNL1        0.0176
     25 C         140.0943  138.3135  165.2532 C.3     1  UNL1        0.0015
@<TRIPOS>BOND
     1    23    24    1
     2    24    25    1
     3    24    16    1
     4    16    17    1
     5    17    18    1
     6    18    19    1
     7    19    20    1
     8    20    21    1
     9    21    22    1
    10    16     1    1
    11     1     2    1
    12     1     4    1
    13     4     5   ar
    14     5     6   ar
    15     6     7   ar
    16     7     8   ar
    17     8     9   ar
    18     1    10    1
    19    10    11   ar
    20    11    12   ar
    21    12    13   ar
    22    13    14   ar
    23    14    15   ar
    24    22    17    1
    25     9     4   ar
    26    15    10   ar
    27     2     3    1
@<TRIPOS>MOLECULE
*****
 25 27 0 0 0
SMALL
GASTEIGER

@<TRIPOS>ATOM
      1 C         140.9622  141.7704  165.7502 C.3     1  UNL1        0.1389
      2 O         140.2774  142.8575  166.5242 O.3     1  UNL1       -0.3773
      3 H         139.4976  142.4936  166.9720 H       1  UNL1        0.2112
      4 C         139.9255  140.7891  166.2109 C.ar    1  UNL1        0.0068
      5 C         139.7802  140.4822  167.6719 C.ar    1  UNL1       -0.0017
      6 C         138.7434  139.5009  168.1327 C.ar    1  UNL1       -0.0002
      7 C         137.8519  138.8267  167.1324 C.ar    1  UNL1       -0.0000
      8 C         137.9972  139.1336  165.6714 C.ar    1  UNL1       -0.0002
      9 C         139.0340  140.1149  165.2106 C.ar    1  UNL1       -0.0017
     10 C         141.9990  142.7516  165.2894 C.ar    1  UNL1        0.0068
     11 C         141.6247  143.8441  164.3322 C.ar    1  UNL1       -0.0017
     12 C         142.6615  144.8254  163.8714 C.ar    1  UNL1       -0.0002
     13 C         144.0725  144.7141  164.3679 C.ar    1  UNL1       -0.0000
     14 C         144.4468  143.6216  165.3251 C.ar    1  UNL1       -0.0002
     15 C         143.4100  142.6404  165.7859 C.ar    1  UNL1       -0.0017
     16 C         141.6471  140.6833  164.9761 C.3     1  UNL1        0.0902
     17 N         141.7657  140.7854  163.4842 N.3     1  UNL1       -0.2671
     18 C         140.5343  140.9491  162.6435 C.3     1  UNL1        0.1047
     19 C         140.6529  141.0512  161.1517 C.3     1  UNL1        0.1595
     20 O         142.0029  140.9896  160.5007 O.3     1  UNL1       -0.3508
     21 C         143.2342  140.8260  161.3414 C.3     1  UNL1        0.1595
     22 C         143.1156  140.7238  162.8332 C.3     1  UNL1        0.1047
     23 C         142.9894  139.3166  166.9651 C.3     1  UNL1        0.0015
     24 C         142.2134  139.4941  165.6938 C.3     1  UNL1        0.0176
     25 C         142.0359  138.1187  165.1223 C.3     1  UNL1        0.0015
@<TRIPOS>BOND
     1    23    24    1
     2    24    25    1
     3    24    16    1
     4    16    17    1
     5    17    18    1
     6    18    19    1
     7    19    20    1
     8    20    21    1
     9    21    22    1
    10    16     1    1
    11     1     2    1
    12     1     4    1
    13     4     5   ar
    14     5     6   ar
    15     6     7   ar
    16     7     8   ar
    17     8     9   ar
    18     1    10    1
    19    10    11   ar
    20    11    12   ar
    21    12    13   ar
    22    13    14   ar
    23    14    15   ar
    24    22    17    1
    25     9     4   ar
    26    15    10   ar
    27     2     3    1
@<TRIPOS>MOLECULE
*****
 25 27 0 0 0
SMALL
GASTEIGER

@<TRIPOS>ATOM
      1 C         140.7615  142.4836  166.4746 C.3     1  UNL1        0.1389
      2 O         140.1253  143.4059  167.4720 O.3     1  UNL1       -0.3773
      3 H         140.3905  143.1457  168.3680 H       1  UNL1        0.2112
      4 C         141.4214  141.7309  167.5917 C.ar    1  UNL1        0.0068
      5 C         140.9353  140.3614  167.9632 C.ar    1  UNL1       -0.0017
      6 C         141.5952  139.6086  169.0802 C.ar    1  UNL1       -0.0002
      7 C         142.7414  140.2254  169.8258 C.ar    1  UNL1       -0.0000
      8 C         143.2276  141.5949  169.4543 C.ar    1  UNL1       -0.0002
      9 C         142.5676  142.3476  168.3372 C.ar    1  UNL1       -0.0017
     10 C         140.1015  143.2364  165.3576 C.ar    1  UNL1        0.0068
     11 C         138.6298  143.0790  165.1139 C.ar    1  UNL1       -0.0017
     12 C         137.9699  143.8317  163.9968 C.ar    1  UNL1       -0.0002
     13 C         138.7815  144.7419  163.1235 C.ar    1  UNL1       -0.0000
     14 C         140.2532  144.8993  163.3672 C.ar    1  UNL1       -0.0002
     15 C         140.9131  144.1466  164.4843 C.ar    1  UNL1       -0.0017
     16 C         141.3977  141.5614  165.4773 C.3     1  UNL1        0.0902
     17 N         140.5419  140.6628  164.6343 N.3     1  UNL1       -0.2671
     18 C         139.5899  139.7050  165.2871 C.3     1  UNL1        0.1047
     19 C         138.7343  138.8065  164.4442 C.3     1  UNL1        0.1595
     20 O         138.8307  138.8659  162.9485 O.3     1  UNL1       -0.3508
     21 C         139.7827  139.8237  162.2957 C.3     1  UNL1        0.1595
     22 C         140.6383  140.7222  163.1386 C.3     1  UNL1        0.1047
     23 C         143.9366  142.5984  165.1544 C.3     1  UNL1        0.0015
     24 C         142.8895  141.5377  165.3228 C.3     1  UNL1        0.0176
     25 C         143.6224  140.2289  165.3192 C.3     1  UNL1        0.0015
@<TRIPOS>BOND
     1    23    24    1
     2    24    25    1
     3    24    16    1
     4    16    17    1
     5    17    18    1
     6    18    19    1
     7    19    20    1
     8    20    21    1
     9    21    22    1
    10    16     1    1
    11     1     2    1
    12     1     4    1
    13     4     5   ar
    14     5     6   ar
    15     6     7   ar
    16     7     8   ar
    17     8     9   ar
    18     1    10    1
    19    10    11   ar
    20    11    12   ar
    21    12    13   ar
    22    13    14   ar
    23    14    15   ar
    24    22    17    1
    25     9     4   ar
    26    15    10   ar
    27     2     3    1
@<TRIPOS>MOLECULE
*****
 25 27 0 0 0
SMALL
GASTEIGER

@<TRIPOS>ATOM
      1 C         140.2517  141.8863  165.9527 C.3     1  UNL1        0.1389
      2 O         139.9945  143.3335  166.2518 O.3     1  UNL1       -0.3773
      3 H         139.4996  143.7322  165.5190 H       1  UNL1        0.2112
      4 C         139.5309  142.0285  164.6449 C.ar    1  UNL1        0.0068
      5 C         140.3045  142.0434  163.3599 C.ar    1  UNL1       -0.0017
      6 C         139.5837  142.1856  162.0522 C.ar    1  UNL1       -0.0002
      7 C         138.0893  142.3130  162.0294 C.ar    1  UNL1       -0.0000
      8 C         137.3157  142.2981  163.3144 C.ar    1  UNL1       -0.0002
      9 C         138.0365  142.1559  164.6222 C.ar    1  UNL1       -0.0017
     10 C         140.9725  141.7441  167.2604 C.ar    1  UNL1        0.0068
     11 C         142.3477  142.3198  167.4253 C.ar    1  UNL1       -0.0017
     12 C         143.0685  142.1776  168.7331 C.ar    1  UNL1       -0.0002
     13 C         142.4140  141.4597  169.8760 C.ar    1  UNL1       -0.0000
     14 C         141.0388  140.8840  169.7111 C.ar    1  UNL1       -0.0002
     15 C         140.3180  141.0262  168.4033 C.ar    1  UNL1       -0.0017
     16 C         140.5088  140.4391  165.6536 C.3     1  UNL1        0.0902
     17 N         141.9131  139.9541  165.4465 N.3     1  UNL1       -0.2671
     18 C         142.4558  138.8431  166.2957 C.3     1  UNL1        0.1047
     19 C         143.8600  138.3582  166.0886 C.3     1  UNL1        0.1595
     20 O         144.7216  138.9842  165.0322 O.3     1  UNL1       -0.3508
     21 C         144.1789  140.0951  164.1830 C.3     1  UNL1        0.1595
     22 C         142.7747  140.5801  164.3901 C.3     1  UNL1        0.1047
     23 C         138.2176  139.1299  166.4673 C.3     1  UNL1        0.0015
     24 C         139.3618  139.4769  165.5615 C.3     1  UNL1        0.0176
     25 C         139.2065  138.6090  164.3481 C.3     1  UNL1        0.0015
@<TRIPOS>BOND
     1    23    24    1
     2    24    25    1
     3    24    16    1
     4    16    17    1
     5    17    18    1
     6    18    19    1
     7    19    20    1
     8    20    21    1
     9    21    22    1
    10    16     1    1
    11     1     2    1
    12     1     4    1
    13     4     5   ar
    14     5     6   ar
    15     6     7   ar
    16     7     8   ar
    17     8     9   ar
    18     1    10    1
    19    10    11   ar
    20    11    12   ar
    21    12    13   ar
    22    13    14   ar
    23    14    15   ar
    24    22    17    1
    25     9     4   ar
    26    15    10   ar
    27     2     3    1
