@<TRIPOS>MOLECULE
*****
 35 38 0 0 0
SMALL
GASTEIGER

@<TRIPOS>ATOM
      1 C         139.9220  140.5435  160.5832 C.3     1  UNL1        0.0736
      2 N         139.7437  139.0674  160.7809 N.3     1  UNL1       -0.2935
      3 H         140.5805  138.7309  161.2573 H       1  UNL1        0.1236
      4 C         138.5674  138.5512  161.5554 C.3     1  UNL1        0.0956
      5 C         138.5239  138.7084  163.0465 C.ar    1  UNL1       -0.0064
      6 C         138.0762  140.0060  163.6511 C.ar    1  UNL1       -0.0029
      7 C         138.0327  140.1631  165.1423 C.ar    1  UNL1       -0.0003
      8 C         138.4370  139.0226  166.0288 C.ar    1  UNL1        0.0001
      9 C         138.8848  137.7250  165.4241 C.ar    1  UNL1       -0.0003
     10 C         138.9283  137.5678  163.9330 C.ar    1  UNL1       -0.0029
     11 C         138.3935  139.1798  167.5199 C.2     1  UNL1        0.0047
     12 C         139.4408  139.9949  168.2189 C.2     1  UNL1        0.0598
     13 C         139.3974  140.1522  169.7100 C.2     1  UNL1        0.2679
     14 O         138.1143  139.9202  170.4515 O.2     1  UNL1       -0.2681
     15 N         140.6370  140.5414  170.4596 N.am    1  UNL1       -0.1934
     16 O         140.5934  140.6986  171.9507 O.3     1  UNL1       -0.2949
     17 H         141.4791  140.6937  169.9730 H       1  UNL1        0.1825
     18 H         139.6961  140.5138  172.2693 H       1  UNL1        0.2414
     19 C         141.1046  141.2434  161.1848 C.3     1  UNL1        0.0447
     20 C         140.8433  142.6079  163.4684 C.2     1  UNL1        0.0810
     21 N         141.1099  142.3152  164.9152 N.2     1  UNL1       -0.2459
     22 C         141.6429  140.9166  165.0147 C.2     1  UNL1        0.0773
     23 C         142.0791  140.0899  166.1878 C.2     1  UNL1        0.0185
     24 C         142.5782  138.6914  165.9756 C.2     1  UNL1       -0.0027
     25 C         142.6411  138.1197  164.5902 C.2     1  UNL1       -0.0213
     26 C         142.2049  138.9465  163.4171 C.3     1  UNL1        0.0536
     27 C         141.7058  140.3449  163.6294 C.2     1  UNL1       -0.0026
     28 C         141.2117  141.3902  162.6737 C.2     1  UNL1       -0.0052
     29 C         142.4743  145.4229  163.2135 C.3     1  UNL1        0.0557
     30 C         141.0530  145.1866  162.7965 C.ar    1  UNL1        0.1020
     31 N         140.1318  146.2027  162.1891 N.ar    1  UNL1       -0.0817
     32 O         138.8128  145.5368  161.9309 O.2     1  UNL1       -0.3580
     33 C         138.9188  144.1091  162.3787 C.ar    1  UNL1        0.1558
     34 C         137.8312  143.0788  162.3045 C.3     1  UNL1        0.0754
     35 C         140.3033  143.8926  162.9137 C.ar    1  UNL1        0.0669
@<TRIPOS>BOND
     1    29    30    1
     2    30    31   ar
     3    31    32   ar
     4    32    33   ar
     5    33    34    1
     6    33    35   ar
     7    35    20    1
     8    20    21    2
     9    21    22    1
    10    22    23    2
    11    23    24    1
    12    24    25    2
    13    25    26    1
    14    26    27    1
    15    27    28    2
    16    28    19    1
    17    19     1    1
    18     1     2    1
    19     2     4    1
    20     4     5    1
    21     5     6   ar
    22     6     7   ar
    23     7     8   ar
    24     8    11    1
    25    11    12    2
    26    12    13    1
    27    13    14    2
    28    13    15   am
    29    15    16    1
    30     8     9   ar
    31     9    10   ar
    32    35    30   ar
    33    28    20    1
    34    10     5   ar
    35    27    22    1
    36     2     3    1
    37    15    17    1
    38    16    18    1
@<TRIPOS>MOLECULE
*****
 35 38 0 0 0
SMALL
GASTEIGER

@<TRIPOS>ATOM
      1 C         138.2457  141.2677  161.1553 C.3     1  UNL1        0.0736
      2 N         137.4258  140.8724  162.3476 N.3     1  UNL1       -0.2935
      3 H         137.7470  139.9471  162.6322 H       1  UNL1        0.1236
      4 C         137.4302  141.7298  163.5783 C.3     1  UNL1        0.0956
      5 C         138.2280  141.3145  164.7788 C.ar    1  UNL1       -0.0064
      6 C         139.1916  142.2763  165.4083 C.ar    1  UNL1       -0.0029
      7 C         139.9893  141.8608  166.6088 C.ar    1  UNL1       -0.0003
      8 C         139.8235  140.4837  167.1797 C.ar    1  UNL1        0.0001
      9 C         138.8599  139.5219  166.5501 C.ar    1  UNL1       -0.0003
     10 C         138.0621  139.9372  165.3497 C.ar    1  UNL1       -0.0029
     11 C         140.6213  140.0683  168.3801 C.2     1  UNL1        0.0047
     12 C         141.2711  141.1075  169.2449 C.2     1  UNL1        0.0598
     13 C         142.0689  140.6922  170.4454 C.2     1  UNL1        0.2679
     14 O         141.6873  141.1896  171.8081 O.2     1  UNL1       -0.2681
     15 N         143.2482  139.7796  170.2832 N.am    1  UNL1       -0.1934
     16 O         144.0459  139.3644  171.4837 O.3     1  UNL1       -0.2949
     17 H         143.4986  139.4531  169.3888 H       1  UNL1        0.1825
     18 H         143.6684  139.7712  172.2792 H       1  UNL1        0.2414
     19 C         139.6255  140.7074  160.9749 C.3     1  UNL1        0.0447
     20 C         141.4558  142.1678  162.2643 C.2     1  UNL1        0.0810
     21 N         142.3738  141.9320  163.4268 N.2     1  UNL1       -0.2459
     22 C         142.1493  140.5328  163.9185 C.2     1  UNL1        0.0773
     23 C         142.7706  139.7502  165.0372 C.2     1  UNL1        0.0185
     24 C         142.3351  138.3386  165.2972 C.2     1  UNL1       -0.0027
     25 C         141.2782  137.7096  164.4385 C.2     1  UNL1       -0.0213
     26 C         140.6569  138.4922  163.3199 C.3     1  UNL1        0.0536
     27 C         141.0924  139.9038  163.0599 C.2     1  UNL1       -0.0026
     28 C         140.6638  140.9142  162.0375 C.2     1  UNL1       -0.0052
     29 C         139.4751  144.6789  162.9130 C.3     1  UNL1        0.0557
     30 C         140.4381  144.5889  161.7665 C.ar    1  UNL1        0.1020
     31 N         140.6597  145.6373  160.7168 N.ar    1  UNL1       -0.0817
     32 O         141.7071  145.1310  159.7699 O.2     1  UNL1       -0.3580
     33 C         142.1327  143.7697  160.2343 C.ar    1  UNL1        0.1558
     34 C         143.1620  142.8967  159.5797 C.3     1  UNL1        0.0754
     35 C         141.3485  143.4346  161.4683 C.ar    1  UNL1        0.0669
@<TRIPOS>BOND
     1    29    30    1
     2    30    31   ar
     3    31    32   ar
     4    32    33   ar
     5    33    34    1
     6    33    35   ar
     7    35    20    1
     8    20    21    2
     9    21    22    1
    10    22    23    2
    11    23    24    1
    12    24    25    2
    13    25    26    1
    14    26    27    1
    15    27    28    2
    16    28    19    1
    17    19     1    1
    18     1     2    1
    19     2     4    1
    20     4     5    1
    21     5     6   ar
    22     6     7   ar
    23     7     8   ar
    24     8    11    1
    25    11    12    2
    26    12    13    1
    27    13    14    2
    28    13    15   am
    29    15    16    1
    30     8     9   ar
    31     9    10   ar
    32    35    30   ar
    33    28    20    1
    34    10     5   ar
    35    27    22    1
    36     2     3    1
    37    15    17    1
    38    16    18    1
@<TRIPOS>MOLECULE
*****
 35 38 0 0 0
SMALL
GASTEIGER

@<TRIPOS>ATOM
      1 C         138.4068  141.1748  161.0719 C.3     1  UNL1        0.0736
      2 N         137.5167  140.7014  162.1826 N.3     1  UNL1       -0.2935
      3 H         137.8446  139.7724  162.4470 H       1  UNL1        0.1236
      4 C         137.4083  141.4988  163.4484 C.3     1  UNL1        0.0956
      5 C         138.2538  141.1414  164.6347 C.ar    1  UNL1       -0.0064
      6 C         138.1182  139.7905  165.2726 C.ar    1  UNL1       -0.0029
      7 C         138.9638  139.4331  166.4589 C.ar    1  UNL1       -0.0003
      8 C         139.9448  140.4265  167.0074 C.ar    1  UNL1        0.0001
      9 C         140.0804  141.7773  166.3695 C.ar    1  UNL1       -0.0003
     10 C         139.2349  142.1348  165.1832 C.ar    1  UNL1       -0.0029
     11 C         140.7903  140.0690  168.1937 C.2     1  UNL1        0.0047
     12 C         141.0700  141.0948  169.2517 C.2     1  UNL1        0.0598
     13 C         141.9155  140.7374  170.4380 C.2     1  UNL1        0.2679
     14 O         141.5512  141.2494  171.8001 O.2     1  UNL1       -0.2681
     15 N         143.1252  139.8681  170.2624 N.am    1  UNL1       -0.1934
     16 O         143.9706  139.5107  171.4488 O.3     1  UNL1       -0.2949
     17 H         143.3643  139.5320  169.3685 H       1  UNL1        0.1825
     18 H         143.5988  139.9199  172.2458 H       1  UNL1        0.2414
     19 C         139.7823  140.5972  160.9150 C.3     1  UNL1        0.0447
     20 C         141.5942  142.1403  162.1319 C.2     1  UNL1        0.0810
     21 N         142.5339  141.9628  163.2875 N.2     1  UNL1       -0.2459
     22 C         142.3504  140.5746  163.8252 C.2     1  UNL1        0.0773
     23 C         143.0062  139.8422  164.9581 C.2     1  UNL1        0.0185
     24 C         142.6089  138.4294  165.2677 C.2     1  UNL1       -0.0027
     25 C         141.5558  137.7488  164.4444 C.2     1  UNL1       -0.0213
     26 C         140.9000  138.4812  163.3115 C.3     1  UNL1        0.0536
     27 C         141.2973  139.8940  163.0019 C.2     1  UNL1       -0.0026
     28 C         140.8300  140.8617  161.9554 C.2     1  UNL1       -0.0052
     29 C         143.3351  142.8860  159.4743 C.3     1  UNL1        0.0557
     30 C         142.2451  143.7216  160.0774 C.ar    1  UNL1        0.1020
     31 N         141.7641  145.0467  159.5649 N.ar    1  UNL1       -0.0817
     32 O         140.6665  145.5229  160.4697 O.2     1  UNL1       -0.3580
     33 C         140.4693  144.4921  161.5414 C.ar    1  UNL1        0.1558
     34 C         139.4716  144.5623  162.6593 C.3     1  UNL1        0.0754
     35 C         141.4450  143.3788  161.2990 C.ar    1  UNL1        0.0669
@<TRIPOS>BOND
     1    29    30    1
     2    30    31   ar
     3    31    32   ar
     4    32    33   ar
     5    33    34    1
     6    33    35   ar
     7    35    20    1
     8    20    21    2
     9    21    22    1
    10    22    23    2
    11    23    24    1
    12    24    25    2
    13    25    26    1
    14    26    27    1
    15    27    28    2
    16    28    19    1
    17    19     1    1
    18     1     2    1
    19     2     4    1
    20     4     5    1
    21     5     6   ar
    22     6     7   ar
    23     7     8   ar
    24     8    11    1
    25    11    12    2
    26    12    13    1
    27    13    14    2
    28    13    15   am
    29    15    16    1
    30     8     9   ar
    31     9    10   ar
    32    35    30   ar
    33    28    20    1
    34    10     5   ar
    35    27    22    1
    36     2     3    1
    37    15    17    1
    38    16    18    1
@<TRIPOS>MOLECULE
*****
 35 38 0 0 0
SMALL
GASTEIGER

@<TRIPOS>ATOM
      1 C         144.5595  143.0932  161.5444 C.3     1  UNL1        0.0736
      2 N         145.5703  142.1198  162.0743 N.3     1  UNL1       -0.2935
      3 H         146.4852  142.4471  161.7639 H       1  UNL1        0.1236
      4 C         145.6753  141.8770  163.5508 C.3     1  UNL1        0.0956
      5 C         144.5484  141.2110  164.2832 C.ar    1  UNL1       -0.0064
      6 C         144.6128  139.7428  164.5834 C.ar    1  UNL1       -0.0029
      7 C         143.4858  139.0769  165.3159 C.ar    1  UNL1       -0.0003
      8 C         142.2944  139.8791  165.7482 C.ar    1  UNL1        0.0001
      9 C         142.2300  141.3474  165.4481 C.ar    1  UNL1       -0.0003
     10 C         143.3569  142.0134  164.7156 C.ar    1  UNL1       -0.0029
     11 C         141.1675  139.2132  166.4807 C.2     1  UNL1        0.0047
     12 C         139.8931  139.9618  166.7364 C.2     1  UNL1        0.0598
     13 C         138.7661  139.2959  167.4689 C.2     1  UNL1        0.2679
     14 O         138.5250  139.6068  168.9163 O.2     1  UNL1       -0.2681
     15 N         137.8802  138.3192  166.7539 N.am    1  UNL1       -0.1934
     16 O         136.7532  137.6533  167.4865 O.3     1  UNL1       -0.2949
     17 H         138.0384  138.1151  165.8039 H       1  UNL1        0.1825
     18 H         136.7373  137.9630  168.4055 H       1  UNL1        0.2414
     19 C         143.4328  142.6088  160.6806 C.3     1  UNL1        0.0447
     20 C         140.9653  142.4744  161.6995 C.2     1  UNL1        0.0810
     21 N         140.1107  141.3805  162.2679 N.2     1  UNL1       -0.2459
     22 C         140.8961  140.1037  162.2152 C.2     1  UNL1        0.0773
     23 C         140.5643  138.7030  162.6368 C.2     1  UNL1        0.0185
     24 C         141.5725  137.6070  162.4574 C.2     1  UNL1       -0.0027
     25 C         142.9126  137.9117  161.8564 C.2     1  UNL1       -0.0213
     26 C         143.2445  139.3124  161.4347 C.3     1  UNL1        0.0536
     27 C         142.2362  140.4084  161.6142 C.2     1  UNL1       -0.0026
     28 C         142.2790  141.8736  161.2954 C.2     1  UNL1       -0.0052
     29 C         139.8896  143.9148  158.9760 C.3     1  UNL1        0.0557
     30 C         140.0803  144.5780  160.3078 C.ar    1  UNL1        0.1020
     31 N         139.8102  146.0197  160.6216 N.ar    1  UNL1       -0.0817
     32 O         140.1376  146.2487  162.0674 O.2     1  UNL1       -0.3580
     33 C         140.6102  144.9484  162.6471 C.ar    1  UNL1        0.1558
     34 C         141.0423  144.7208  164.0654 C.3     1  UNL1        0.0754
     35 C         140.5748  143.9159  161.5597 C.ar    1  UNL1        0.0669
@<TRIPOS>BOND
     1    29    30    1
     2    30    31   ar
     3    31    32   ar
     4    32    33   ar
     5    33    34    1
     6    33    35   ar
     7    35    20    1
     8    20    21    2
     9    21    22    1
    10    22    23    2
    11    23    24    1
    12    24    25    2
    13    25    26    1
    14    26    27    1
    15    27    28    2
    16    28    19    1
    17    19     1    1
    18     1     2    1
    19     2     4    1
    20     4     5    1
    21     5     6   ar
    22     6     7   ar
    23     7     8   ar
    24     8    11    1
    25    11    12    2
    26    12    13    1
    27    13    14    2
    28    13    15   am
    29    15    16    1
    30     8     9   ar
    31     9    10   ar
    32    35    30   ar
    33    28    20    1
    34    10     5   ar
    35    27    22    1
    36     2     3    1
    37    15    17    1
    38    16    18    1
@<TRIPOS>MOLECULE
*****
 35 38 0 0 0
SMALL
GASTEIGER

@<TRIPOS>ATOM
      1 C         143.4741  140.4243  160.7694 C.3     1  UNL1        0.0736
      2 N         144.4640  139.8593  161.7445 N.3     1  UNL1       -0.2935
      3 H         145.3309  139.7070  161.2292 H       1  UNL1        0.1236
      4 C         144.8242  140.6308  162.9794 C.3     1  UNL1        0.0956
      5 C         144.0668  140.4025  164.2539 C.ar    1  UNL1       -0.0064
      6 C         143.2894  141.5245  164.8757 C.ar    1  UNL1       -0.0029
      7 C         142.5321  141.2961  166.1502 C.ar    1  UNL1       -0.0003
      8 C         142.5520  139.9457  166.8028 C.ar    1  UNL1        0.0001
      9 C         143.3294  138.8236  166.1810 C.ar    1  UNL1       -0.0003
     10 C         144.0868  139.0520  164.9066 C.ar    1  UNL1       -0.0029
     11 C         141.7947  139.7174  168.0773 C.2     1  UNL1        0.0047
     12 C         140.8180  140.7465  168.5639 C.2     1  UNL1        0.0598
     13 C         140.0606  140.5183  169.8384 C.2     1  UNL1        0.2679
     14 O         139.0916  141.5522  170.3303 O.2     1  UNL1       -0.2681
     15 N         140.2721  139.2562  170.6209 N.am    1  UNL1       -0.1934
     16 O         139.5146  139.0280  171.8953 O.3     1  UNL1       -0.2949
     17 H         140.9081  138.5776  170.2980 H       1  UNL1        0.1825
     18 H         138.9358  139.7871  172.0678 H       1  UNL1        0.2414
     19 C         142.0382  139.9934  160.8235 C.3     1  UNL1        0.0447
     20 C         140.6174  141.9114  162.0267 C.2     1  UNL1        0.0810
     21 N         139.7617  141.9842  163.2565 N.2     1  UNL1       -0.2459
     22 C         139.7558  140.6283  163.8981 C.2     1  UNL1        0.0773
     23 C         139.0847  140.1053  165.1334 C.2     1  UNL1        0.0185
     24 C         139.2657  138.6716  165.5354 C.2     1  UNL1       -0.0027
     25 C         140.1178  137.7608  164.7021 C.2     1  UNL1       -0.0213
     26 C         140.7889  138.2838  163.4668 C.3     1  UNL1        0.0536
     27 C         140.6079  139.7175  163.0648 C.2     1  UNL1       -0.0026
     28 C         141.1404  140.5105  161.9082 C.2     1  UNL1       -0.0052
     29 C         138.8466  142.7069  159.4035 C.3     1  UNL1        0.0557
     30 C         140.0865  143.4068  159.8757 C.ar    1  UNL1        0.1020
     31 N         140.7301  144.5952  159.2249 N.ar    1  UNL1       -0.0817
     32 O         141.9418  144.9640  160.0284 O.2     1  UNL1       -0.3580
     33 C         142.0471  144.0036  161.1758 C.ar    1  UNL1        0.1558
     34 C         143.1120  144.0053  162.2321 C.3     1  UNL1        0.0754
     35 C         140.9004  143.0411  161.0814 C.ar    1  UNL1        0.0669
@<TRIPOS>BOND
     1    29    30    1
     2    30    31   ar
     3    31    32   ar
     4    32    33   ar
     5    33    34    1
     6    33    35   ar
     7    35    20    1
     8    20    21    2
     9    21    22    1
    10    22    23    2
    11    23    24    1
    12    24    25    2
    13    25    26    1
    14    26    27    1
    15    27    28    2
    16    28    19    1
    17    19     1    1
    18     1     2    1
    19     2     4    1
    20     4     5    1
    21     5     6   ar
    22     6     7   ar
    23     7     8   ar
    24     8    11    1
    25    11    12    2
    26    12    13    1
    27    13    14    2
    28    13    15   am
    29    15    16    1
    30     8     9   ar
    31     9    10   ar
    32    35    30   ar
    33    28    20    1
    34    10     5   ar
    35    27    22    1
    36     2     3    1
    37    15    17    1
    38    16    18    1
@<TRIPOS>MOLECULE
*****
 35 38 0 0 0
SMALL
GASTEIGER

@<TRIPOS>ATOM
      1 C         143.2246  142.0843  161.2950 C.3     1  UNL1        0.0736
      2 N         144.6533  141.6492  161.4348 N.3     1  UNL1       -0.2935
      3 H         145.2167  142.3136  160.9042 H       1  UNL1        0.1236
      4 C         145.2753  141.5437  162.7957 C.3     1  UNL1        0.0956
      5 C         144.4554  141.0740  163.9606 C.ar    1  UNL1       -0.0064
      6 C         144.5265  139.6412  164.3987 C.ar    1  UNL1       -0.0029
      7 C         143.7066  139.1715  165.5637 C.ar    1  UNL1       -0.0003
      8 C         142.8156  140.1347  166.2906 C.ar    1  UNL1        0.0001
      9 C         142.7445  141.5675  165.8526 C.ar    1  UNL1       -0.0003
     10 C         143.5644  142.0372  164.6876 C.ar    1  UNL1       -0.0029
     11 C         141.9957  139.6650  167.4556 C.2     1  UNL1        0.0047
     12 C         140.7087  140.3568  167.7944 C.2     1  UNL1        0.0598
     13 C         139.8887  139.8872  168.9594 C.2     1  UNL1        0.2679
     14 O         138.4316  139.5820  168.7763 O.2     1  UNL1       -0.2681
     15 N         140.5259  139.7227  170.3073 N.am    1  UNL1       -0.1934
     16 O         139.7058  139.2531  171.4722 O.3     1  UNL1       -0.2949
     17 H         141.4822  139.9231  170.4275 H       1  UNL1        0.1825
     18 H         138.7919  139.1023  171.1844 H       1  UNL1        0.2414
     19 C         142.1420  141.0601  161.1238 C.3     1  UNL1        0.0447
     20 C         140.1221  141.9175  162.6502 C.2     1  UNL1        0.0810
     21 N         139.2768  141.3099  163.7303 N.2     1  UNL1       -0.2459
     22 C         139.7362  139.8974  163.9391 C.2     1  UNL1        0.0773
     23 C         139.2722  138.8186  164.8723 C.2     1  UNL1        0.0185
     24 C         139.9375  137.4743  164.8545 C.2     1  UNL1       -0.0027
     25 C         141.0667  137.2088  163.9036 C.2     1  UNL1       -0.0213
     26 C         141.5307  138.2876  162.9703 C.3     1  UNL1        0.0536
     27 C         140.8655  139.6319  162.9881 C.2     1  UNL1       -0.0026
     28 C         141.1039  140.8803  162.1916 C.2     1  UNL1       -0.0052
     29 C         140.8845  144.6481  164.2664 C.3     1  UNL1        0.0557
     30 C         140.3563  144.5716  162.8645 C.ar    1  UNL1        0.1020
     31 N         140.0859  145.7368  161.9594 N.ar    1  UNL1       -0.0817
     32 O         139.5683  145.2018  160.6572 O.2     1  UNL1       -0.3580
     33 C         139.5189  143.7059  160.7575 C.ar    1  UNL1        0.1558
     34 C         139.0625  142.7648  159.6822 C.3     1  UNL1        0.0754
     35 C         140.0059  143.3164  162.1217 C.ar    1  UNL1        0.0669
@<TRIPOS>BOND
     1    29    30    1
     2    30    31   ar
     3    31    32   ar
     4    32    33   ar
     5    33    34    1
     6    33    35   ar
     7    35    20    1
     8    20    21    2
     9    21    22    1
    10    22    23    2
    11    23    24    1
    12    24    25    2
    13    25    26    1
    14    26    27    1
    15    27    28    2
    16    28    19    1
    17    19     1    1
    18     1     2    1
    19     2     4    1
    20     4     5    1
    21     5     6   ar
    22     6     7   ar
    23     7     8   ar
    24     8    11    1
    25    11    12    2
    26    12    13    1
    27    13    14    2
    28    13    15   am
    29    15    16    1
    30     8     9   ar
    31     9    10   ar
    32    35    30   ar
    33    28    20    1
    34    10     5   ar
    35    27    22    1
    36     2     3    1
    37    15    17    1
    38    16    18    1
@<TRIPOS>MOLECULE
*****
 35 38 0 0 0
SMALL
GASTEIGER

@<TRIPOS>ATOM
      1 C         141.5461  138.0308  161.3236 C.3     1  UNL1        0.0736
      2 N         141.8535  137.2127  162.5427 N.3     1  UNL1       -0.2935
      3 H         142.8052  137.4490  162.8236 H       1  UNL1        0.1236
      4 C         140.9964  137.3401  163.7670 C.3     1  UNL1        0.0956
      5 C         141.3935  138.2807  164.8659 C.ar    1  UNL1       -0.0064
      6 C         140.4390  139.3425  165.3258 C.ar    1  UNL1       -0.0029
      7 C         140.8362  140.2830  166.4248 C.ar    1  UNL1       -0.0003
      8 C         142.1878  140.1619  167.0638 C.ar    1  UNL1        0.0001
      9 C         143.1423  139.1001  166.6039 C.ar    1  UNL1       -0.0003
     10 C         142.7452  138.1595  165.5050 C.ar    1  UNL1       -0.0029
     11 C         142.5849  141.1024  168.1627 C.2     1  UNL1        0.0047
     12 C         141.7125  141.2519  169.3737 C.2     1  UNL1        0.0598
     13 C         142.1096  142.1925  170.4727 C.2     1  UNL1        0.2679
     14 O         141.3830  142.1623  171.7846 O.2     1  UNL1       -0.2681
     15 N         143.2331  143.1631  170.2598 N.am    1  UNL1       -0.1934
     16 O         143.6301  144.1037  171.3588 O.3     1  UNL1       -0.2949
     17 H         143.7100  143.1829  169.3987 H       1  UNL1        0.1825
     18 H         143.0644  143.9541  172.1324 H       1  UNL1        0.2414
     19 C         142.2028  139.3656  161.1309 C.3     1  UNL1        0.0447
     20 C         140.4009  141.2327  161.7728 C.2     1  UNL1        0.0810
     21 N         140.3542  142.3702  162.7494 N.2     1  UNL1       -0.2459
     22 C         141.6552  142.3945  163.4955 C.2     1  UNL1        0.0773
     23 C         142.1751  143.2937  164.5777 C.2     1  UNL1        0.0185
     24 C         143.5458  143.0703  165.1444 C.2     1  UNL1       -0.0027
     25 C         144.3967  141.9477  164.6289 C.2     1  UNL1       -0.0213
     26 C         143.8768  141.0484  163.5467 C.3     1  UNL1        0.0536
     27 C         142.5061  141.2718  162.9800 C.2     1  UNL1       -0.0026
     28 C         141.7309  140.5539  161.9153 C.2     1  UNL1       -0.0052
     29 C         138.0464  139.0469  162.3459 C.3     1  UNL1        0.0557
     30 C         138.2271  139.8378  161.0843 C.ar    1  UNL1        0.1020
     31 N         137.3573  139.7629  159.8645 N.ar    1  UNL1       -0.0817
     32 O         137.9019  140.7212  158.8472 O.2     1  UNL1       -0.3580
     33 C         139.1083  141.3885  159.4383 C.ar    1  UNL1        0.1558
     34 C         139.9636  142.4205  158.7649 C.3     1  UNL1        0.0754
     35 C         139.3093  140.8425  160.8209 C.ar    1  UNL1        0.0669
@<TRIPOS>BOND
     1    29    30    1
     2    30    31   ar
     3    31    32   ar
     4    32    33   ar
     5    33    34    1
     6    33    35   ar
     7    35    20    1
     8    20    21    2
     9    21    22    1
    10    22    23    2
    11    23    24    1
    12    24    25    2
    13    25    26    1
    14    26    27    1
    15    27    28    2
    16    28    19    1
    17    19     1    1
    18     1     2    1
    19     2     4    1
    20     4     5    1
    21     5     6   ar
    22     6     7   ar
    23     7     8   ar
    24     8    11    1
    25    11    12    2
    26    12    13    1
    27    13    14    2
    28    13    15   am
    29    15    16    1
    30     8     9   ar
    31     9    10   ar
    32    35    30   ar
    33    28    20    1
    34    10     5   ar
    35    27    22    1
    36     2     3    1
    37    15    17    1
    38    16    18    1
@<TRIPOS>MOLECULE
*****
 35 38 0 0 0
SMALL
GASTEIGER

@<TRIPOS>ATOM
      1 C         139.8363  138.2664  162.1387 C.3     1  UNL1        0.0736
      2 N         138.9573  137.5297  163.1055 N.3     1  UNL1       -0.2935
      3 H         138.8102  136.5975  162.7183 H       1  UNL1        0.1236
      4 C         139.3974  137.3436  164.5273 C.3     1  UNL1        0.0956
      5 C         139.7882  138.5332  165.3532 C.ar    1  UNL1       -0.0064
      6 C         141.2038  139.0287  165.3317 C.ar    1  UNL1       -0.0029
      7 C         141.5946  140.2184  166.1577 C.ar    1  UNL1       -0.0003
      8 C         140.5698  140.9124  167.0050 C.ar    1  UNL1        0.0001
      9 C         139.1542  140.4169  167.0265 C.ar    1  UNL1       -0.0003
     10 C         138.7634  139.2273  166.2006 C.ar    1  UNL1       -0.0029
     11 C         140.9606  142.1020  167.8309 C.2     1  UNL1        0.0047
     12 C         141.6258  141.9057  169.1609 C.2     1  UNL1        0.0598
     13 C         142.0166  143.0953  169.9869 C.2     1  UNL1        0.2679
     14 O         141.0376  144.2104  170.2062 O.2     1  UNL1       -0.2681
     15 N         143.3864  143.1698  170.5936 N.am    1  UNL1       -0.1934
     16 O         143.7772  144.3594  171.4196 O.3     1  UNL1       -0.2949
     17 H         144.0290  142.4379  170.4497 H       1  UNL1        0.1825
     18 H         143.0346  144.9821  171.4612 H       1  UNL1        0.2414
     19 C         139.5107  139.6798  161.7560 C.3     1  UNL1        0.0447
     20 C         141.7573  141.0908  162.0828 C.2     1  UNL1        0.0810
     21 N         142.1351  142.3195  162.8559 N.2     1  UNL1       -0.2459
     22 C         140.9155  142.8027  163.5833 C.2     1  UNL1        0.0773
     23 C         140.6892  143.9694  164.4985 C.2     1  UNL1        0.0185
     24 C         139.3313  144.2061  165.0901 C.2     1  UNL1       -0.0027
     25 C         138.1997  143.2760  164.7666 C.2     1  UNL1       -0.0213
     26 C         138.4261  142.1094  163.8515 C.3     1  UNL1        0.0536
     27 C         139.7839  141.8727  163.2598 C.2     1  UNL1       -0.0026
     28 C         140.3042  140.8147  162.3325 C.2     1  UNL1       -0.0052
     29 C         144.0808  139.0480  163.1210 C.3     1  UNL1        0.0557
     30 C         143.7399  139.3416  161.6900 C.ar    1  UNL1        0.1020
     31 N         144.4073  138.7477  160.4850 N.ar    1  UNL1       -0.0817
     32 O         143.7518  139.3196  159.2631 O.2     1  UNL1       -0.3580
     33 C         142.6793  140.2670  159.7129 C.ar    1  UNL1        0.1558
     34 C         141.7732  141.0613  158.8196 C.3     1  UNL1        0.0754
     35 C         142.6720  140.2805  161.2128 C.ar    1  UNL1        0.0669
@<TRIPOS>BOND
     1    29    30    1
     2    30    31   ar
     3    31    32   ar
     4    32    33   ar
     5    33    34    1
     6    33    35   ar
     7    35    20    1
     8    20    21    2
     9    21    22    1
    10    22    23    2
    11    23    24    1
    12    24    25    2
    13    25    26    1
    14    26    27    1
    15    27    28    2
    16    28    19    1
    17    19     1    1
    18     1     2    1
    19     2     4    1
    20     4     5    1
    21     5     6   ar
    22     6     7   ar
    23     7     8   ar
    24     8    11    1
    25    11    12    2
    26    12    13    1
    27    13    14    2
    28    13    15   am
    29    15    16    1
    30     8     9   ar
    31     9    10   ar
    32    35    30   ar
    33    28    20    1
    34    10     5   ar
    35    27    22    1
    36     2     3    1
    37    15    17    1
    38    16    18    1
@<TRIPOS>MOLECULE
*****
 35 38 0 0 0
SMALL
GASTEIGER

@<TRIPOS>ATOM
      1 C         138.4835  138.4079  165.6814 C.3     1  UNL1        0.0736
      2 N         139.3687  137.8234  164.6209 N.3     1  UNL1       -0.2935
      3 H         139.5114  136.8431  164.8638 H       1  UNL1        0.1236
      4 C         138.9392  137.8554  163.1841 C.3     1  UNL1        0.0956
      5 C         139.0960  139.1134  162.3823 C.ar    1  UNL1       -0.0064
      6 C         140.4624  139.6826  162.1395 C.ar    1  UNL1       -0.0029
      7 C         140.6191  140.9406  161.3377 C.ar    1  UNL1       -0.0003
      8 C         139.4096  141.6295  160.7787 C.ar    1  UNL1        0.0001
      9 C         138.0432  141.0603  161.0216 C.ar    1  UNL1       -0.0003
     10 C         137.8863  139.8023  161.8233 C.ar    1  UNL1       -0.0029
     11 C         139.5664  142.8875  159.9769 C.2     1  UNL1        0.0047
     12 C         140.9072  143.5529  159.8804 C.2     1  UNL1        0.0598
     13 C         141.0641  144.8109  159.0786 C.2     1  UNL1        0.2679
     14 O         139.8802  145.7003  158.8393 O.2     1  UNL1       -0.2681
     15 N         142.4049  145.1796  158.5161 N.am    1  UNL1       -0.1934
     16 O         142.5617  146.4376  157.7144 O.3     1  UNL1       -0.2949
     17 H         143.1820  144.5959  158.6732 H       1  UNL1        0.1825
     18 H         141.7068  146.8921  157.6553 H       1  UNL1        0.2414
     19 C         138.9503  139.5876  166.4818 C.3     1  UNL1        0.0447
     20 C         141.3075  140.6961  165.8818 C.2     1  UNL1        0.0810
     21 N         141.7449  141.9067  165.1115 N.2     1  UNL1       -0.2459
     22 C         140.5170  142.5954  164.5938 C.2     1  UNL1        0.0773
     23 C         140.3337  143.8358  163.7706 C.2     1  UNL1        0.0185
     24 C         138.9541  144.2913  163.3977 C.2     1  UNL1       -0.0027
     25 C         137.7578  143.5063  163.8480 C.2     1  UNL1       -0.0213
     26 C         137.9411  142.2660  164.6712 C.3     1  UNL1        0.0536
     27 C         139.3207  141.8105  165.0441 C.2     1  UNL1       -0.0026
     28 C         139.8093  140.6367  165.8401 C.2     1  UNL1       -0.0052
     29 C         143.2594  138.5265  164.4215 C.3     1  UNL1        0.0557
     30 C         143.1071  138.7197  165.9012 C.ar    1  UNL1        0.1020
     31 N         143.8252  137.9496  166.9695 N.ar    1  UNL1       -0.0817
     32 O         143.3719  138.4709  168.3009 O.2     1  UNL1       -0.3580
     33 C         142.3735  139.5632  168.0555 C.ar    1  UNL1        0.1558
     34 C         141.6635  140.3615  169.1084 C.3     1  UNL1        0.0754
     35 C         142.2099  139.7170  166.5724 C.ar    1  UNL1        0.0669
@<TRIPOS>BOND
     1    29    30    1
     2    30    31   ar
     3    31    32   ar
     4    32    33   ar
     5    33    34    1
     6    33    35   ar
     7    35    20    1
     8    20    21    2
     9    21    22    1
    10    22    23    2
    11    23    24    1
    12    24    25    2
    13    25    26    1
    14    26    27    1
    15    27    28    2
    16    28    19    1
    17    19     1    1
    18     1     2    1
    19     2     4    1
    20     4     5    1
    21     5     6   ar
    22     6     7   ar
    23     7     8   ar
    24     8    11    1
    25    11    12    2
    26    12    13    1
    27    13    14    2
    28    13    15   am
    29    15    16    1
    30     8     9   ar
    31     9    10   ar
    32    35    30   ar
    33    28    20    1
    34    10     5   ar
    35    27    22    1
    36     2     3    1
    37    15    17    1
    38    16    18    1
