@<TRIPOS>MOLECULE
*****
 36 41 0 0 0
SMALL
GASTEIGER

@<TRIPOS>ATOM
      1 C         142.2806  137.3913  156.5189 C.ar    1  UNL1       -0.0065
      2 C         143.3124  138.2817  155.8924 C.ar    1  UNL1       -0.0032
      3 C         143.7717  139.5169  156.6089 C.ar    1  UNL1       -0.0026
      4 C         143.1993  139.8616  157.9518 C.ar    1  UNL1        0.0019
      5 C         142.1675  138.9711  158.5783 C.ar    1  UNL1       -0.0200
      6 C         141.7082  137.7360  157.8619 C.ar    1  UNL1       -0.0071
      7 C         141.7866  139.5635  159.9027 C.3     1  UNL1        0.0519
      8 C         142.5830  140.8201  160.0947 C.2     1  UNL1        0.0074
      9 C         142.8397  141.9628  161.0319 C.2     1  UNL1        0.0976
     10 N         143.8715  142.8532  160.4054 N.2     1  UNL1       -0.1526
     11 N         144.2524  142.2609  159.0811 N.2     1  UNL1       -0.1678
     12 C         143.4561  141.0044  158.8890 C.3     1  UNL1        0.1672
     13 C         142.1804  142.1773  162.3621 C.ar    1  UNL1        0.0265
     14 C         141.9764  143.4987  163.0421 C.ar    1  UNL1        0.0376
     15 S         141.2793  143.2462  164.3461 S.2     1  UNL1       -0.0780
     16 C         141.0526  141.7687  164.4720 C.ar    1  UNL1        0.0711
     17 C         141.6095  141.1082  163.2458 C.ar    1  UNL1        0.0168
     18 C         140.3859  141.0739  165.6220 C.1     1  UNL1       -0.0543
     19 C         139.7193  140.3791  166.7722 C.1     1  UNL1       -0.0388
     20 C         139.0526  139.6842  167.9223 C.3     1  UNL1        0.2815
     21 O         139.5653  139.8832  169.3179 O.3     1  UNL1       -0.4604
     22 C         140.6412  140.8938  169.5847 C.ar    1  UNL1        0.1505
     23 C         140.2884  142.3446  169.7287 C.ar    1  UNL1        0.0378
     24 C         141.3642  143.3552  169.9955 C.ar    1  UNL1        0.0032
     25 C         142.7929  142.9151  170.1182 C.ar    1  UNL1        0.0011
     26 C         143.1457  141.4643  169.9741 C.ar    1  UNL1        0.0145
     27 C         142.0699  140.4537  169.7074 C.ar    1  UNL1        0.0916
     28 CL        142.4228  139.0029  169.5633 Cl      1  UNL1       -0.0791
     29 C         141.8213  136.1560  155.8025 C.3     1  UNL1        0.0992
     30 C         143.9466  130.7836  157.4210 C.3     1  UNL1        0.0897
     31 N         143.4153  132.1267  157.0164 N.3     1  UNL1       -0.2691
     32 C         144.0169  133.3752  157.5902 C.3     1  UNL1        0.0897
     33 C         143.4856  134.7183  157.1855 C.3     1  UNL1        0.0899
     34 N         142.3526  134.8130  156.2071 N.3     1  UNL1       -0.2665
     35 C         141.7509  133.5644  155.6333 C.3     1  UNL1        0.0899
     36 C         142.2822  132.2213  156.0380 C.3     1  UNL1        0.0897
@<TRIPOS>BOND
     1    30    31    1
     2    31    32    1
     3    32    33    1
     4    33    34    1
     5    34    29    1
     6    29     1    1
     7     1     2   ar
     8     2     3   ar
     9     3     4   ar
    10     4     5   ar
    11     5     6   ar
    12     5     7    1
    13     7     8    1
    14     8     9    2
    15     9    13    1
    16    13    14   ar
    17    14    15   ar
    18    15    16   ar
    19    16    18    1
    20    18    19    3
    21    19    20    1
    22    20    21    1
    23    21    22    1
    24    22    23   ar
    25    23    24   ar
    26    24    25   ar
    27    25    26   ar
    28    26    27   ar
    29    27    28    1
    30    16    17   ar
    31     9    10    1
    32    10    11    2
    33    11    12    1
    34    34    35    1
    35    35    36    1
    36    36    31    1
    37     6     1   ar
    38    12     8    1
    39    12     4    1
    40    17    13   ar
    41    27    22   ar
@<TRIPOS>MOLECULE
*****
 36 41 0 0 0
SMALL
GASTEIGER

@<TRIPOS>ATOM
      1 C         138.5107  139.9535  164.9949 C.ar    1  UNL1       -0.0065
      2 C         138.2426  141.4269  164.9114 C.ar    1  UNL1       -0.0032
      3 C         138.1917  142.1053  163.5745 C.ar    1  UNL1       -0.0026
      4 C         138.4089  141.3103  162.3213 C.ar    1  UNL1        0.0019
      5 C         138.6770  139.8369  162.4048 C.ar    1  UNL1       -0.0200
      6 C         138.7280  139.1585  163.7416 C.ar    1  UNL1       -0.0071
      7 C         138.8512  139.3175  161.0084 C.3     1  UNL1        0.0519
      8 C         138.6907  140.4700  160.0618 C.2     1  UNL1        0.0074
      9 C         138.6992  140.8613  158.6138 C.2     1  UNL1        0.0976
     10 N         138.4310  142.3348  158.5302 N.2     1  UNL1       -0.1526
     11 N         138.2569  142.8541  159.9266 N.2     1  UNL1       -0.1678
     12 C         138.4174  141.7017  160.8732 C.3     1  UNL1        0.1672
     13 C         138.9344  139.9407  157.4531 C.ar    1  UNL1        0.0265
     14 C         138.4675  140.1606  156.0446 C.ar    1  UNL1        0.0376
     15 S         138.9224  138.9945  155.2181 S.2     1  UNL1       -0.0780
     16 C         139.6705  138.0539  156.1157 C.ar    1  UNL1        0.0711
     17 C         139.6779  138.6387  157.4970 C.ar    1  UNL1        0.0168
     18 C         140.3006  136.7563  155.7043 C.1     1  UNL1       -0.0543
     19 C         140.9306  135.4586  155.2930 C.1     1  UNL1       -0.0388
     20 C         141.5607  134.1611  154.8816 C.3     1  UNL1        0.2815
     21 O         141.4629  132.9624  155.7780 O.3     1  UNL1       -0.4604
     22 C         142.6770  132.4723  156.5101 C.ar    1  UNL1        0.1505
     23 C         143.5592  133.4450  157.2350 C.ar    1  UNL1        0.0378
     24 C         144.7732  132.9550  157.9671 C.ar    1  UNL1        0.0032
     25 C         145.1051  131.4922  157.9742 C.ar    1  UNL1        0.0011
     26 C         144.2229  130.5195  157.2493 C.ar    1  UNL1        0.0145
     27 C         143.0089  131.0095  156.5172 C.ar    1  UNL1        0.0916
     28 CL        142.1267  130.0367  155.7923 Cl      1  UNL1       -0.0791
     29 C         138.5617  139.2750  166.3318 C.3     1  UNL1        0.0992
     30 C         142.8600  140.7120  170.2636 C.3     1  UNL1        0.0897
     31 N         141.7854  140.3528  169.2806 N.3     1  UNL1       -0.2691
     32 C         142.1496  139.9822  167.8735 C.3     1  UNL1        0.0897
     33 C         141.0750  139.6229  166.8905 C.3     1  UNL1        0.0899
     34 N         139.6362  139.6343  167.3147 N.3     1  UNL1       -0.2665
     35 C         139.2721  140.0049  168.7219 C.3     1  UNL1        0.0899
     36 C         140.3467  140.3641  169.7048 C.3     1  UNL1        0.0897
@<TRIPOS>BOND
     1    30    31    1
     2    31    32    1
     3    32    33    1
     4    33    34    1
     5    34    29    1
     6    29     1    1
     7     1     2   ar
     8     2     3   ar
     9     3     4   ar
    10     4     5   ar
    11     5     6   ar
    12     5     7    1
    13     7     8    1
    14     8     9    2
    15     9    13    1
    16    13    14   ar
    17    14    15   ar
    18    15    16   ar
    19    16    18    1
    20    18    19    3
    21    19    20    1
    22    20    21    1
    23    21    22    1
    24    22    23   ar
    25    23    24   ar
    26    24    25   ar
    27    25    26   ar
    28    26    27   ar
    29    27    28    1
    30    16    17   ar
    31     9    10    1
    32    10    11    2
    33    11    12    1
    34    34    35    1
    35    35    36    1
    36    36    31    1
    37     6     1   ar
    38    12     8    1
    39    12     4    1
    40    17    13   ar
    41    27    22   ar
@<TRIPOS>MOLECULE
*****
 36 41 0 0 0
SMALL
GASTEIGER

@<TRIPOS>ATOM
      1 C         142.9178  139.0323  164.6941 C.ar    1  UNL1       -0.0065
      2 C         143.8581  140.1376  164.3145 C.ar    1  UNL1       -0.0032
      3 C         144.1931  140.3749  162.8719 C.ar    1  UNL1       -0.0026
      4 C         143.5879  139.5068  161.8088 C.ar    1  UNL1        0.0019
      5 C         142.6477  138.4015  162.1883 C.ar    1  UNL1       -0.0200
      6 C         142.3126  138.1642  163.6310 C.ar    1  UNL1       -0.0071
      7 C         142.2088  137.7136  160.9297 C.3     1  UNL1        0.0519
      8 C         142.8778  138.3938  159.7722 C.2     1  UNL1        0.0074
      9 C         143.0200  138.3890  158.2790 C.2     1  UNL1        0.0976
     10 N         143.9603  139.4943  157.8994 N.2     1  UNL1       -0.1526
     11 N         144.3992  140.1822  159.1580 N.2     1  UNL1       -0.1678
     12 C         143.7302  139.5021  160.3155 C.3     1  UNL1        0.1672
     13 C         142.3411  137.4447  157.3317 C.ar    1  UNL1        0.0265
     14 C         141.1573  137.7626  156.4670 C.ar    1  UNL1        0.0376
     15 S         140.8115  136.5310  155.6837 S.2     1  UNL1       -0.0780
     16 C         141.7815  135.4520  156.0642 C.ar    1  UNL1        0.0711
     17 C         142.7268  136.0166  157.0827 C.ar    1  UNL1        0.0168
     18 C         141.8024  134.0538  155.5215 C.1     1  UNL1       -0.0543
     19 C         141.8234  132.6555  154.9789 C.1     1  UNL1       -0.0388
     20 C         141.8443  131.2573  154.4362 C.3     1  UNL1        0.2815
     21 O         143.0414  130.3825  154.6633 O.3     1  UNL1       -0.4604
     22 C         143.3646  129.8976  156.0456 C.ar    1  UNL1        0.1505
     23 C         142.6529  128.7023  156.6066 C.ar    1  UNL1        0.0378
     24 C         142.9761  128.2175  157.9887 C.ar    1  UNL1        0.0032
     25 C         144.0109  128.9279  158.8099 C.ar    1  UNL1        0.0011
     26 C         144.7226  130.1232  158.2489 C.ar    1  UNL1        0.0145
     27 C         144.3994  130.6081  156.8667 C.ar    1  UNL1        0.0916
     28 CL        145.1111  131.8034  156.3057 Cl      1  UNL1       -0.0791
     29 C         142.5827  138.7950  166.1369 C.3     1  UNL1        0.0992
     30 C         140.4954  143.2954  169.5115 C.3     1  UNL1        0.0897
     31 N         141.0172  142.1703  168.6679 N.3     1  UNL1       -0.2691
     32 C         140.4348  141.9197  167.3085 C.3     1  UNL1        0.0897
     33 C         140.9567  140.7946  166.4648 C.3     1  UNL1        0.0899
     34 N         142.0609  139.9201  166.9805 N.3     1  UNL1       -0.2665
     35 C         142.6433  140.1708  168.3400 C.3     1  UNL1        0.0899
     36 C         142.1215  141.2959  169.1836 C.3     1  UNL1        0.0897
@<TRIPOS>BOND
     1    30    31    1
     2    31    32    1
     3    32    33    1
     4    33    34    1
     5    34    29    1
     6    29     1    1
     7     1     2   ar
     8     2     3   ar
     9     3     4   ar
    10     4     5   ar
    11     5     6   ar
    12     5     7    1
    13     7     8    1
    14     8     9    2
    15     9    13    1
    16    13    14   ar
    17    14    15   ar
    18    15    16   ar
    19    16    18    1
    20    18    19    3
    21    19    20    1
    22    20    21    1
    23    21    22    1
    24    22    23   ar
    25    23    24   ar
    26    24    25   ar
    27    25    26   ar
    28    26    27   ar
    29    27    28    1
    30    16    17   ar
    31     9    10    1
    32    10    11    2
    33    11    12    1
    34    34    35    1
    35    35    36    1
    36    36    31    1
    37     6     1   ar
    38    12     8    1
    39    12     4    1
    40    17    13   ar
    41    27    22   ar
@<TRIPOS>MOLECULE
*****
 36 41 0 0 0
SMALL
GASTEIGER

@<TRIPOS>ATOM
      1 C         142.4579  136.5685  156.0484 C.ar    1  UNL1       -0.0065
      2 C         143.5188  137.2243  155.2152 C.ar    1  UNL1       -0.0032
      3 C         144.0062  138.5985  155.5673 C.ar    1  UNL1       -0.0026
      4 C         143.4326  139.3169  156.7526 C.ar    1  UNL1        0.0019
      5 C         142.3717  138.6610  157.5858 C.ar    1  UNL1       -0.0200
      6 C         141.8843  137.2868  157.2337 C.ar    1  UNL1       -0.0071
      7 C         141.9965  139.6074  158.6875 C.3     1  UNL1        0.0519
      8 C         142.8256  140.8482  158.5351 C.2     1  UNL1        0.0074
      9 C         143.1061  142.1998  159.1218 C.2     1  UNL1        0.0976
     10 N         144.1670  142.8557  158.2886 N.2     1  UNL1       -0.1526
     11 N         144.5422  141.9093  157.1870 N.2     1  UNL1       -0.1678
     12 C         143.7132  140.6686  157.3393 C.3     1  UNL1        0.1672
     13 C         142.4422  142.7917  160.3297 C.ar    1  UNL1        0.0265
     14 C         141.8646  144.1725  160.4306 C.ar    1  UNL1        0.0376
     15 S         141.3048  144.3409  161.8120 S.2     1  UNL1       -0.0780
     16 C         141.5364  143.0643  162.5648 C.ar    1  UNL1        0.0711
     17 C         142.2394  142.1069  161.6487 C.ar    1  UNL1        0.0168
     18 C         141.1355  142.7928  163.9845 C.1     1  UNL1       -0.0543
     19 C         140.7345  142.5214  165.4042 C.1     1  UNL1       -0.0388
     20 C         140.3336  142.2499  166.8239 C.3     1  UNL1        0.2815
     21 O         140.3303  140.8439  167.3465 O.3     1  UNL1       -0.4604
     22 C         140.6385  139.7007  166.4255 C.ar    1  UNL1        0.1505
     23 C         142.0593  139.2669  166.2179 C.ar    1  UNL1        0.0378
     24 C         142.3675  138.1237  165.2970 C.ar    1  UNL1        0.0032
     25 C         141.2548  137.4144  164.5837 C.ar    1  UNL1        0.0011
     26 C         139.8340  137.8482  164.7913 C.ar    1  UNL1        0.0145
     27 C         139.5258  138.9913  165.7122 C.ar    1  UNL1        0.0916
     28 CL        138.1050  139.4251  165.9199 Cl      1  UNL1       -0.0791
     29 C         141.9705  135.1942  155.6963 C.3     1  UNL1        0.0992
     30 C         144.6712  130.3665  158.0199 C.3     1  UNL1        0.0897
     31 N         143.9960  131.5734  157.4390 N.3     1  UNL1       -0.2691
     32 C         142.8101  131.4073  156.5357 C.3     1  UNL1        0.0897
     33 C         142.1349  132.6143  155.9548 C.3     1  UNL1        0.0899
     34 N         142.6456  133.9873  156.2772 N.3     1  UNL1       -0.2665
     35 C         143.8317  134.1534  157.1805 C.3     1  UNL1        0.0899
     36 C         144.5068  132.9464  157.7613 C.3     1  UNL1        0.0897
@<TRIPOS>BOND
     1    30    31    1
     2    31    32    1
     3    32    33    1
     4    33    34    1
     5    34    29    1
     6    29     1    1
     7     1     2   ar
     8     2     3   ar
     9     3     4   ar
    10     4     5   ar
    11     5     6   ar
    12     5     7    1
    13     7     8    1
    14     8     9    2
    15     9    13    1
    16    13    14   ar
    17    14    15   ar
    18    15    16   ar
    19    16    18    1
    20    18    19    3
    21    19    20    1
    22    20    21    1
    23    21    22    1
    24    22    23   ar
    25    23    24   ar
    26    24    25   ar
    27    25    26   ar
    28    26    27   ar
    29    27    28    1
    30    16    17   ar
    31     9    10    1
    32    10    11    2
    33    11    12    1
    34    34    35    1
    35    35    36    1
    36    36    31    1
    37     6     1   ar
    38    12     8    1
    39    12     4    1
    40    17    13   ar
    41    27    22   ar
@<TRIPOS>MOLECULE
*****
 36 41 0 0 0
SMALL
GASTEIGER

@<TRIPOS>ATOM
      1 C         142.4504  132.9559  153.8642 C.ar    1  UNL1       -0.0065
      2 C         141.8709  133.9951  152.9508 C.ar    1  UNL1       -0.0032
      3 C         141.6999  135.4054  153.4321 C.ar    1  UNL1       -0.0026
      4 C         142.1084  135.7765  154.8269 C.ar    1  UNL1        0.0019
      5 C         142.6878  134.7374  155.7403 C.ar    1  UNL1       -0.0200
      6 C         142.8589  133.3271  155.2590 C.ar    1  UNL1       -0.0071
      7 C         142.9973  135.3945  157.0527 C.3     1  UNL1        0.0519
      8 C         142.6091  136.8398  156.9504 C.2     1  UNL1        0.0074
      9 C         142.5604  138.1391  157.6984 C.2     1  UNL1        0.0976
     10 N         141.9809  139.1783  156.7850 N.2     1  UNL1       -0.1526
     11 N         141.6715  138.5212  155.4726 N.2     1  UNL1       -0.1678
     12 C         142.0597  137.0760  155.5748 C.3     1  UNL1        0.1672
     13 C         143.0119  138.3604  159.1116 C.ar    1  UNL1        0.0265
     14 C         142.9859  137.3444  160.2148 C.ar    1  UNL1        0.0376
     15 S         143.5266  137.9927  161.4547 S.2     1  UNL1       -0.0780
     16 C         143.8868  139.4093  161.1178 C.ar    1  UNL1        0.0711
     17 C         143.5687  139.6365  159.6697 C.ar    1  UNL1        0.0168
     18 C         144.4639  140.4209  162.0630 C.1     1  UNL1       -0.0543
     19 C         145.0409  141.4326  163.0084 C.1     1  UNL1       -0.0388
     20 C         145.6179  142.4443  163.9536 C.3     1  UNL1        0.2815
     21 O         144.7614  143.0358  165.0336 O.3     1  UNL1       -0.4604
     22 C         143.3976  143.5662  164.7032 C.ar    1  UNL1        0.1505
     23 C         143.2567  144.8550  163.9488 C.ar    1  UNL1        0.0378
     24 C         141.8931  145.3854  163.6184 C.ar    1  UNL1        0.0032
     25 C         140.6704  144.6270  164.0424 C.ar    1  UNL1        0.0011
     26 C         140.8114  143.3381  164.7968 C.ar    1  UNL1        0.0145
     27 C         142.1750  142.8078  165.1272 C.ar    1  UNL1        0.0916
     28 CL        142.3159  141.5190  165.8816 Cl      1  UNL1       -0.0791
     29 C         142.6214  131.5456  153.3828 C.3     1  UNL1        0.0992
     30 C         144.2151  127.2326  157.2374 C.3     1  UNL1        0.0897
     31 N         143.8167  128.3108  156.2738 N.3     1  UNL1       -0.2691
     32 C         144.8685  129.0663  155.5169 C.3     1  UNL1        0.0897
     33 C         144.4701  130.1446  154.5532 C.3     1  UNL1        0.0899
     34 N         143.0198  130.4673  154.3465 N.3     1  UNL1       -0.2665
     35 C         141.9680  129.7117  155.1034 C.3     1  UNL1        0.0899
     36 C         142.3665  128.6335  156.0670 C.3     1  UNL1        0.0897
@<TRIPOS>BOND
     1    30    31    1
     2    31    32    1
     3    32    33    1
     4    33    34    1
     5    34    29    1
     6    29     1    1
     7     1     2   ar
     8     2     3   ar
     9     3     4   ar
    10     4     5   ar
    11     5     6   ar
    12     5     7    1
    13     7     8    1
    14     8     9    2
    15     9    13    1
    16    13    14   ar
    17    14    15   ar
    18    15    16   ar
    19    16    18    1
    20    18    19    3
    21    19    20    1
    22    20    21    1
    23    21    22    1
    24    22    23   ar
    25    23    24   ar
    26    24    25   ar
    27    25    26   ar
    28    26    27   ar
    29    27    28    1
    30    16    17   ar
    31     9    10    1
    32    10    11    2
    33    11    12    1
    34    34    35    1
    35    35    36    1
    36    36    31    1
    37     6     1   ar
    38    12     8    1
    39    12     4    1
    40    17    13   ar
    41    27    22   ar
@<TRIPOS>MOLECULE
*****
 36 41 0 0 0
SMALL
GASTEIGER

@<TRIPOS>ATOM
      1 C         142.5995  135.8308  155.7666 C.ar    1  UNL1       -0.0065
      2 C         141.5327  136.0211  154.7294 C.ar    1  UNL1       -0.0032
      3 C         140.4085  136.9826  154.9775 C.ar    1  UNL1       -0.0026
      4 C         140.3511  137.7539  156.2627 C.ar    1  UNL1        0.0019
      5 C         141.4178  137.5636  157.2999 C.ar    1  UNL1       -0.0200
      6 C         142.5420  136.6021  157.0518 C.ar    1  UNL1       -0.0071
      7 C         141.0986  138.4563  158.4623 C.3     1  UNL1        0.0519
      8 C         139.8345  139.1983  158.1435 C.2     1  UNL1        0.0074
      9 C         138.8560  140.2085  158.6649 C.2     1  UNL1        0.0976
     10 N         137.7892  140.3988  157.6278 N.2     1  UNL1       -0.1526
     11 N         138.1085  139.5061  156.4654 N.2     1  UNL1       -0.1678
     12 C         139.3725  138.7642  156.7841 C.3     1  UNL1        0.1672
     13 C         138.9311  140.9061  159.9908 C.ar    1  UNL1        0.0265
     14 C         138.4750  142.3060  160.2776 C.ar    1  UNL1        0.0376
     15 S         138.7375  142.5912  161.7266 S.2     1  UNL1       -0.0780
     16 C         139.3558  141.3676  162.3354 C.ar    1  UNL1        0.0711
     17 C         139.4755  140.3262  161.2625 C.ar    1  UNL1        0.0168
     18 C         139.7800  141.2127  163.7657 C.1     1  UNL1       -0.0543
     19 C         140.2043  141.0579  165.1962 C.1     1  UNL1       -0.0388
     20 C         140.6285  140.9029  166.6266 C.3     1  UNL1        0.2815
     21 O         142.0796  141.0008  166.9933 O.3     1  UNL1       -0.4604
     22 C         143.1276  140.9783  165.9202 C.ar    1  UNL1        0.1505
     23 C         143.7105  142.2644  165.4141 C.ar    1  UNL1        0.0378
     24 C         144.7584  142.2419  164.3411 C.ar    1  UNL1        0.0032
     25 C         145.2233  140.9333  163.7742 C.ar    1  UNL1        0.0011
     26 C         144.6404  139.6472  164.2804 C.ar    1  UNL1        0.0145
     27 C         143.5925  139.6697  165.3534 C.ar    1  UNL1        0.0916
     28 CL        143.0096  138.3836  165.8595 Cl      1  UNL1       -0.0791
     29 C         143.7238  134.8693  155.5185 C.3     1  UNL1        0.0992
     30 C         143.3757  129.2483  157.5882 C.3     1  UNL1        0.0897
     31 N         143.4628  130.6536  157.0708 N.3     1  UNL1       -0.2691
     32 C         142.5710  131.0962  155.9489 C.3     1  UNL1        0.0897
     33 C         142.6580  132.5015  155.4314 C.3     1  UNL1        0.0899
     34 N         143.6368  133.4640  156.0359 N.3     1  UNL1       -0.2665
     35 C         144.5286  133.0213  157.1579 C.3     1  UNL1        0.0899
     36 C         144.4416  131.6161  157.6753 C.3     1  UNL1        0.0897
@<TRIPOS>BOND
     1    30    31    1
     2    31    32    1
     3    32    33    1
     4    33    34    1
     5    34    29    1
     6    29     1    1
     7     1     2   ar
     8     2     3   ar
     9     3     4   ar
    10     4     5   ar
    11     5     6   ar
    12     5     7    1
    13     7     8    1
    14     8     9    2
    15     9    13    1
    16    13    14   ar
    17    14    15   ar
    18    15    16   ar
    19    16    18    1
    20    18    19    3
    21    19    20    1
    22    20    21    1
    23    21    22    1
    24    22    23   ar
    25    23    24   ar
    26    24    25   ar
    27    25    26   ar
    28    26    27   ar
    29    27    28    1
    30    16    17   ar
    31     9    10    1
    32    10    11    2
    33    11    12    1
    34    34    35    1
    35    35    36    1
    36    36    31    1
    37     6     1   ar
    38    12     8    1
    39    12     4    1
    40    17    13   ar
    41    27    22   ar
@<TRIPOS>MOLECULE
*****
 36 41 0 0 0
SMALL
GASTEIGER

@<TRIPOS>ATOM
      1 C         142.5760  135.0173  155.3746 C.ar    1  UNL1       -0.0065
      2 C         141.4158  135.1411  154.4320 C.ar    1  UNL1       -0.0032
      3 C         140.3554  136.1728  154.6792 C.ar    1  UNL1       -0.0026
      4 C         140.4552  137.0806  155.8691 C.ar    1  UNL1        0.0019
      5 C         141.6154  136.9568  156.8118 C.ar    1  UNL1       -0.0200
      6 C         142.6758  135.9251  156.5645 C.ar    1  UNL1       -0.0071
      7 C         141.4465  137.9835  157.8922 C.3     1  UNL1        0.0519
      8 C         140.1818  138.7419  157.6173 C.2     1  UNL1        0.0074
      9 C         139.2958  139.8451  158.1151 C.2     1  UNL1        0.0976
     10 N         138.1356  139.9690  157.1725 N.2     1  UNL1       -0.1526
     11 N         138.3046  138.9422  156.0921 N.2     1  UNL1       -0.1678
     12 C         139.5692  138.1839  156.3670 C.3     1  UNL1        0.1672
     13 C         139.5291  140.6783  159.3405 C.ar    1  UNL1        0.0265
     14 C         138.4963  141.0525  160.3620 C.ar    1  UNL1        0.0376
     15 S         139.1651  141.8890  161.4123 S.2     1  UNL1       -0.0780
     16 C         140.6111  142.0316  161.0400 C.ar    1  UNL1        0.0711
     17 C         140.8361  141.2834  159.7596 C.ar    1  UNL1        0.0168
     18 C         141.6498  142.7895  161.8124 C.1     1  UNL1       -0.0543
     19 C         142.6885  143.5474  162.5850 C.1     1  UNL1       -0.0388
     20 C         143.7272  144.3053  163.3574 C.3     1  UNL1        0.2815
     21 O         144.4734  143.6320  164.4709 O.3     1  UNL1       -0.4604
     22 C         144.3591  142.1484  164.6609 C.ar    1  UNL1        0.1505
     23 C         145.3168  141.2272  163.9650 C.ar    1  UNL1        0.0378
     24 C         145.2025  139.7437  164.1549 C.ar    1  UNL1        0.0032
     25 C         144.1305  139.1814  165.0407 C.ar    1  UNL1        0.0011
     26 C         143.1728  140.1026  165.7365 C.ar    1  UNL1        0.0145
     27 C         143.2871  141.5861  165.5466 C.ar    1  UNL1        0.0916
     28 CL        142.3294  142.5073  166.2425 Cl      1  UNL1       -0.0791
     29 C         143.6364  133.9856  155.1273 C.3     1  UNL1        0.0992
     30 C         144.0549  129.1941  158.7143 C.3     1  UNL1        0.0897
     31 N         143.9503  130.3920  157.8176 N.3     1  UNL1       -0.2691
     32 C         142.8768  130.4545  156.7719 C.3     1  UNL1        0.0897
     33 C         142.7721  131.6524  155.8751 C.3     1  UNL1        0.0899
     34 N         143.7411  132.7877  156.0240 N.3     1  UNL1       -0.2665
     35 C         144.8146  132.7252  157.0698 C.3     1  UNL1        0.0899
     36 C         144.9192  131.5273  157.9666 C.3     1  UNL1        0.0897
@<TRIPOS>BOND
     1    30    31    1
     2    31    32    1
     3    32    33    1
     4    33    34    1
     5    34    29    1
     6    29     1    1
     7     1     2   ar
     8     2     3   ar
     9     3     4   ar
    10     4     5   ar
    11     5     6   ar
    12     5     7    1
    13     7     8    1
    14     8     9    2
    15     9    13    1
    16    13    14   ar
    17    14    15   ar
    18    15    16   ar
    19    16    18    1
    20    18    19    3
    21    19    20    1
    22    20    21    1
    23    21    22    1
    24    22    23   ar
    25    23    24   ar
    26    24    25   ar
    27    25    26   ar
    28    26    27   ar
    29    27    28    1
    30    16    17   ar
    31     9    10    1
    32    10    11    2
    33    11    12    1
    34    34    35    1
    35    35    36    1
    36    36    31    1
    37     6     1   ar
    38    12     8    1
    39    12     4    1
    40    17    13   ar
    41    27    22   ar
@<TRIPOS>MOLECULE
*****
 36 41 0 0 0
SMALL
GASTEIGER

@<TRIPOS>ATOM
      1 C         140.1911  143.4577  164.2667 C.ar    1  UNL1       -0.0065
      2 C         140.2905  144.9248  163.9708 C.ar    1  UNL1       -0.0032
      3 C         140.7260  145.3880  162.6122 C.ar    1  UNL1       -0.0026
      4 C         141.0621  144.3841  161.5496 C.ar    1  UNL1        0.0019
      5 C         140.9627  142.9170  161.8456 C.ar    1  UNL1       -0.0200
      6 C         140.5272  142.4538  163.2041 C.ar    1  UNL1       -0.0071
      7 C         141.3556  142.1667  160.6075 C.3     1  UNL1        0.0519
      8 C         141.6979  143.1702  159.5464 C.2     1  UNL1        0.0074
      9 C         142.1523  143.3266  158.1255 C.2     1  UNL1        0.0976
     10 N         142.2518  144.7937  157.8296 N.2     1  UNL1       -0.1526
     11 N         141.8588  145.5440  159.0676 N.2     1  UNL1       -0.1678
     12 C         141.5165  144.5406  160.1286 C.3     1  UNL1        0.1672
     13 C         142.4543  142.2117  157.1686 C.ar    1  UNL1        0.0265
     14 C         142.5980  142.3411  155.6810 C.ar    1  UNL1        0.0376
     15 S         142.8981  140.9810  155.1243 S.2     1  UNL1       -0.0780
     16 C         142.9398  140.0110  156.2676 C.ar    1  UNL1        0.0711
     17 C         142.6655  140.7715  157.5311 C.ar    1  UNL1        0.0168
     18 C         143.2085  138.5388  156.1655 C.1     1  UNL1       -0.0543
     19 C         143.4773  137.0666  156.0634 C.1     1  UNL1       -0.0388
     20 C         143.7461  135.5944  155.9613 C.3     1  UNL1        0.2815
     21 O         142.9168  134.6242  156.7494 O.3     1  UNL1       -0.4604
     22 C         143.3957  133.2165  156.9477 C.ar    1  UNL1        0.1505
     23 C         144.6189  132.9499  157.7741 C.ar    1  UNL1        0.0378
     24 C         145.0977  131.5423  157.9724 C.ar    1  UNL1        0.0032
     25 C         144.3535  130.4014  157.3445 C.ar    1  UNL1        0.0011
     26 C         143.1304  130.6680  156.5181 C.ar    1  UNL1        0.0145
     27 C         142.6515  132.0756  156.3198 C.ar    1  UNL1        0.0916
     28 CL        141.4283  132.3423  155.4934 Cl      1  UNL1       -0.0791
     29 C         139.7555  142.9945  165.6254 C.3     1  UNL1        0.0992
     30 C         143.8161  142.2124  169.9728 C.3     1  UNL1        0.0897
     31 N         142.8010  142.4079  168.8859 N.3     1  UNL1       -0.2691
     32 C         143.1933  142.2194  167.4505 C.3     1  UNL1        0.0897
     33 C         142.1781  142.4149  166.3636 C.3     1  UNL1        0.0899
     34 N         140.7707  142.7990  166.7122 N.3     1  UNL1       -0.2665
     35 C         140.3784  142.9875  168.1477 C.3     1  UNL1        0.0899
     36 C         141.3935  142.7920  169.2345 C.3     1  UNL1        0.0897
@<TRIPOS>BOND
     1    30    31    1
     2    31    32    1
     3    32    33    1
     4    33    34    1
     5    34    29    1
     6    29     1    1
     7     1     2   ar
     8     2     3   ar
     9     3     4   ar
    10     4     5   ar
    11     5     6   ar
    12     5     7    1
    13     7     8    1
    14     8     9    2
    15     9    13    1
    16    13    14   ar
    17    14    15   ar
    18    15    16   ar
    19    16    18    1
    20    18    19    3
    21    19    20    1
    22    20    21    1
    23    21    22    1
    24    22    23   ar
    25    23    24   ar
    26    24    25   ar
    27    25    26   ar
    28    26    27   ar
    29    27    28    1
    30    16    17   ar
    31     9    10    1
    32    10    11    2
    33    11    12    1
    34    34    35    1
    35    35    36    1
    36    36    31    1
    37     6     1   ar
    38    12     8    1
    39    12     4    1
    40    17    13   ar
    41    27    22   ar
@<TRIPOS>MOLECULE
*****
 36 41 0 0 0
SMALL
GASTEIGER

@<TRIPOS>ATOM
      1 C         143.1605  142.7570  164.5546 C.ar    1  UNL1       -0.0065
      2 C         143.5630  144.1618  164.2162 C.ar    1  UNL1       -0.0032
      3 C         143.1396  144.7696  162.9119 C.ar    1  UNL1       -0.0026
      4 C         142.3138  143.9726  161.9460 C.ar    1  UNL1        0.0019
      5 C         141.9113  142.5679  162.2844 C.ar    1  UNL1       -0.0200
      6 C         142.3347  141.9600  163.5887 C.ar    1  UNL1       -0.0071
      7 C         141.1011  142.0300  161.1425 C.3     1  UNL1        0.0519
      8 C         141.0027  143.1023  160.0982 C.2     1  UNL1        0.0074
      9 C         140.4412  143.4326  158.7471 C.2     1  UNL1        0.0976
     10 N         140.8436  144.8374  158.4087 N.2     1  UNL1       -0.1526
     11 N         141.6539  145.3753  159.5506 N.2     1  UNL1       -0.1678
     12 C         141.7522  144.3030  160.5948 C.3     1  UNL1        0.1672
     13 C         139.6211  142.5185  157.8856 C.ar    1  UNL1        0.0265
     14 C         140.1548  141.5246  156.8970 C.ar    1  UNL1        0.0376
     15 S         138.9870  140.8297  156.2620 S.2     1  UNL1       -0.0780
     16 C         137.7316  141.3942  156.8581 C.ar    1  UNL1        0.0711
     17 C         138.1235  142.4379  157.8616 C.ar    1  UNL1        0.0168
     18 C         136.3303  140.9865  156.5116 C.1     1  UNL1       -0.0543
     19 C         134.9289  140.5788  156.1651 C.1     1  UNL1       -0.0388
     20 C         133.5276  140.1711  155.8186 C.3     1  UNL1        0.2815
     21 O         132.3638  140.8660  156.4609 O.3     1  UNL1       -0.4604
     22 C         131.1398  140.0856  156.8391 C.ar    1  UNL1        0.1505
     23 C         131.2450  138.9531  157.8171 C.ar    1  UNL1        0.0378
     24 C         130.0211  138.1726  158.1952 C.ar    1  UNL1        0.0032
     25 C         128.6921  138.5247  157.5954 C.ar    1  UNL1        0.0011
     26 C         128.5870  139.6572  156.6175 C.ar    1  UNL1        0.0145
     27 C         129.8108  140.4376  156.2393 C.ar    1  UNL1        0.0916
     28 CL        129.7057  141.5701  155.2613 Cl      1  UNL1       -0.0791
     29 C         143.5839  142.1491  165.8590 C.3     1  UNL1        0.0992
     30 C         140.1089  142.7434  170.7139 C.3     1  UNL1        0.0897
     31 N         140.9777  142.5948  169.5002 N.3     1  UNL1       -0.2691
     32 C         142.4622  142.4452  169.6542 C.3     1  UNL1        0.0897
     33 C         143.3310  142.2966  168.4405 C.3     1  UNL1        0.0899
     34 N         142.7152  142.2977  167.0727 N.3     1  UNL1       -0.2665
     35 C         141.2306  142.4473  166.9187 C.3     1  UNL1        0.0899
     36 C         140.3619  142.5959  168.1324 C.3     1  UNL1        0.0897
@<TRIPOS>BOND
     1    30    31    1
     2    31    32    1
     3    32    33    1
     4    33    34    1
     5    34    29    1
     6    29     1    1
     7     1     2   ar
     8     2     3   ar
     9     3     4   ar
    10     4     5   ar
    11     5     6   ar
    12     5     7    1
    13     7     8    1
    14     8     9    2
    15     9    13    1
    16    13    14   ar
    17    14    15   ar
    18    15    16   ar
    19    16    18    1
    20    18    19    3
    21    19    20    1
    22    20    21    1
    23    21    22    1
    24    22    23   ar
    25    23    24   ar
    26    24    25   ar
    27    25    26   ar
    28    26    27   ar
    29    27    28    1
    30    16    17   ar
    31     9    10    1
    32    10    11    2
    33    11    12    1
    34    34    35    1
    35    35    36    1
    36    36    31    1
    37     6     1   ar
    38    12     8    1
    39    12     4    1
    40    17    13   ar
    41    27    22   ar
