@<TRIPOS>MOLECULE
*****
 36 39 0 0 0
SMALL
GASTEIGER

@<TRIPOS>ATOM
      1 C         143.2943  138.7668  161.2994 C.ar    1  UNL1        0.0359
      2 C         144.3677  139.5301  162.0170 C.ar    1  UNL1        0.0043
      3 C         144.4074  139.5385  163.5165 C.ar    1  UNL1        0.0148
      4 C         143.3737  138.7833  164.2983 C.ar    1  UNL1        0.0516
      5 C         142.3002  138.0199  163.5806 C.ar    1  UNL1        0.0148
      6 C         142.2606  138.0116  162.0812 C.ar    1  UNL1        0.0043
      7 C         143.5517  139.9951  157.5344 C.ar    1  UNL1        0.0872
      8 C         143.1752  138.7420  156.8010 C.ar    1  UNL1        0.0508
      9 C         142.8384  137.4971  157.5671 C.ar    1  UNL1        0.1347
     10 N         142.8781  137.5053  159.0665 N.ar    1  UNL1       -0.2119
     11 C         143.2546  138.7585  159.7998 C.ar    1  UNL1        0.1633
     12 N         143.5914  140.0033  159.0338 N.ar    1  UNL1       -0.2290
     13 N         142.4619  136.2439  156.8336 N.pl3   1  UNL1       -0.2880
     14 C         143.1388  134.9475  157.1673 C.3     1  UNL1        0.1242
     15 C         142.7623  133.6944  156.4339 C.3     1  UNL1        0.1636
     16 O         141.7090  133.7376  155.3668 O.3     1  UNL1       -0.3501
     17 C         141.0321  135.0339  155.0331 C.3     1  UNL1        0.1636
     18 C         141.4086  136.2871  155.7666 C.3     1  UNL1        0.1242
     19 C         143.8885  141.2400  156.7683 C.3     1  UNL1        0.1963
     20 C         146.5786  142.5252  157.1024 C.3     1  UNL1        0.1765
     21 S         145.2335  141.8825  156.9353 S.O2    1  UNL1       -0.0025
     22 O         144.6269  142.9185  157.8346 O.2     1  UNL1       -0.1726
     23 O         145.8401  140.8466  156.0360 O.2     1  UNL1       -0.1726
     24 N         143.4133  138.7916  165.7977 N.am    1  UNL1       -0.2681
     25 C         142.5483  139.7467  166.5655 C.2     1  UNL1        0.3082
     26 O         141.6437  140.6934  165.8339 O.2     1  UNL1       -0.2522
     27 N         142.5880  139.7550  168.0650 N.am    1  UNL1       -0.2681
     28 H         144.0071  138.1702  166.2779 H       1  UNL1        0.1564
     29 H         143.1817  139.1336  168.5452 H       1  UNL1        0.1564
     30 C         141.7230  140.7100  168.8329 C.ar    1  UNL1        0.0517
     31 C         140.3558  140.2879  169.2829 C.ar    1  UNL1        0.0170
     32 C         139.4908  141.2429  170.0508 C.ar    1  UNL1        0.0309
     33 C         139.9930  142.6202  170.3686 C.ar    1  UNL1        0.1402
     34 F         139.1280  143.5753  171.1364 F       1  UNL1       -0.2042
     35 C         141.3602  143.0424  169.9185 C.ar    1  UNL1        0.0309
     36 C         142.2252  142.0872  169.1507 C.ar    1  UNL1        0.0170
@<TRIPOS>BOND
     1    20    21    1
     2    21    22    2
     3    21    23    2
     4    21    19    1
     5    19     7    1
     6     7     8   ar
     7     8     9   ar
     8     9    13    1
     9    13    14    1
    10    14    15    1
    11    15    16    1
    12    16    17    1
    13    17    18    1
    14     9    10   ar
    15    10    11   ar
    16    11     1    1
    17     1     2   ar
    18     2     3   ar
    19     3     4   ar
    20     4    24    1
    21    24    25   am
    22    25    26    2
    23    25    27   am
    24    27    30    1
    25    30    31   ar
    26    31    32   ar
    27    32    33   ar
    28    33    34    1
    29    33    35   ar
    30    35    36   ar
    31     4     5   ar
    32     5     6   ar
    33    11    12   ar
    34    12     7   ar
    35    18    13    1
    36     6     1   ar
    37    36    30   ar
    38    24    28    1
    39    27    29    1
@<TRIPOS>MOLECULE
*****
 36 39 0 0 0
SMALL
GASTEIGER

@<TRIPOS>ATOM
      1 C         143.3166  138.7917  161.2786 C.ar    1  UNL1        0.0359
      2 C         144.3835  139.5633  161.9972 C.ar    1  UNL1        0.0043
      3 C         144.4251  139.5675  163.4966 C.ar    1  UNL1        0.0148
      4 C         143.3998  138.8000  164.2775 C.ar    1  UNL1        0.0516
      5 C         142.3329  138.0284  163.5588 C.ar    1  UNL1        0.0148
      6 C         142.2913  138.0242  162.0594 C.ar    1  UNL1        0.0043
      7 C         143.5875  140.0251  157.5162 C.ar    1  UNL1        0.0872
      8 C         143.1919  138.7794  156.7804 C.ar    1  UNL1        0.0508
      9 C         142.8379  137.5377  157.5439 C.ar    1  UNL1        0.1347
     10 N         142.8795  137.5418  159.0433 N.ar    1  UNL1       -0.2119
     11 C         143.2750  138.7876  159.7791 C.ar    1  UNL1        0.1633
     12 N         143.6290  140.0292  159.0156 N.ar    1  UNL1       -0.2290
     13 N         142.4424  136.2919  156.8079 N.pl3   1  UNL1       -0.2880
     14 C         141.3440  136.3404  155.7875 C.3     1  UNL1        0.1242
     15 C         140.9484  135.0947  155.0516 C.3     1  UNL1        0.1636
     16 O         141.6512  133.8004  155.3360 O.3     1  UNL1       -0.3501
     17 C         142.7496  133.7518  156.3564 C.3     1  UNL1        0.1636
     18 C         143.1452  134.9977  157.0924 C.3     1  UNL1        0.1242
     19 C         143.9414  141.2668  156.7527 C.3     1  UNL1        0.1963
     20 C         146.6746  142.4717  157.0323 C.3     1  UNL1        0.1765
     21 S         145.3080  141.8692  156.8925 S.O2    1  UNL1       -0.0025
     22 O         144.7672  142.8690  157.8712 O.2     1  UNL1       -0.1726
     23 O         145.8488  140.8694  155.9137 O.2     1  UNL1       -0.1726
     24 N         143.4413  138.8041  165.7768 N.am    1  UNL1       -0.2681
     25 C         142.5632  139.7437  166.5488 C.2     1  UNL1        0.3082
     26 O         141.6435  140.6791  165.8214 O.2     1  UNL1       -0.2522
     27 N         142.6047  139.7478  168.0483 N.am    1  UNL1       -0.2681
     28 H         144.0449  138.1901  166.2543 H       1  UNL1        0.1564
     29 H         143.2083  139.1339  168.5257 H       1  UNL1        0.1564
     30 C         141.7265  140.6874  168.8203 C.ar    1  UNL1        0.0517
     31 C         142.2033  142.0753  169.1307 C.ar    1  UNL1        0.0170
     32 C         141.3252  143.0149  169.9027 C.ar    1  UNL1        0.0309
     33 C         139.9702  142.5666  170.3643 C.ar    1  UNL1        0.1402
     34 F         139.0920  143.5062  171.1363 F       1  UNL1       -0.2042
     35 C         139.4934  141.1787  170.0539 C.ar    1  UNL1        0.0309
     36 C         140.3716  140.2391  169.2819 C.ar    1  UNL1        0.0170
@<TRIPOS>BOND
     1    20    21    1
     2    21    22    2
     3    21    23    2
     4    21    19    1
     5    19     7    1
     6     7     8   ar
     7     8     9   ar
     8     9    13    1
     9    13    14    1
    10    14    15    1
    11    15    16    1
    12    16    17    1
    13    17    18    1
    14     9    10   ar
    15    10    11   ar
    16    11     1    1
    17     1     2   ar
    18     2     3   ar
    19     3     4   ar
    20     4    24    1
    21    24    25   am
    22    25    26    2
    23    25    27   am
    24    27    30    1
    25    30    31   ar
    26    31    32   ar
    27    32    33   ar
    28    33    34    1
    29    33    35   ar
    30    35    36   ar
    31     4     5   ar
    32     5     6   ar
    33    11    12   ar
    34    12     7   ar
    35    18    13    1
    36     6     1   ar
    37    36    30   ar
    38    24    28    1
    39    27    29    1
@<TRIPOS>MOLECULE
*****
 36 39 0 0 0
SMALL
GASTEIGER

@<TRIPOS>ATOM
      1 C         138.7713  139.4263  161.1593 C.ar    1  UNL1        0.0359
      2 C         139.4501  138.3424  161.9431 C.ar    1  UNL1        0.0043
      3 C         139.4077  138.3622  163.4424 C.ar    1  UNL1        0.0148
      4 C         138.6865  139.4657  164.1578 C.ar    1  UNL1        0.0516
      5 C         138.0076  140.5496  163.3740 C.ar    1  UNL1        0.0148
      6 C         138.0500  140.5299  161.8747 C.ar    1  UNL1        0.0043
      7 C         137.9850  140.3205  157.3735 C.ar    1  UNL1        0.0872
      8 C         138.8983  139.3673  156.6615 C.ar    1  UNL1        0.0508
      9 C         139.7694  138.4337  157.4487 C.ar    1  UNL1        0.1347
     10 N         139.7270  138.4533  158.9479 N.ar    1  UNL1       -0.2119
     11 C         138.8137  139.4066  159.6599 C.ar    1  UNL1        0.1633
     12 N         137.9427  140.3402  158.8727 N.ar    1  UNL1       -0.2290
     13 N         140.6827  137.4803  156.7366 N.pl3   1  UNL1       -0.2880
     14 C         142.1028  137.3203  157.1924 C.3     1  UNL1        0.1242
     15 C         143.0162  136.3671  156.4804 C.3     1  UNL1        0.1636
     16 O         142.5095  135.5738  155.3125 O.3     1  UNL1       -0.3501
     17 C         141.0894  135.7338  154.8566 C.3     1  UNL1        0.1636
     18 C         140.1760  136.6871  155.5687 C.3     1  UNL1        0.1242
     19 C         137.1140  141.2542  156.5863 C.3     1  UNL1        0.1963
     20 C         135.0146  140.1546  154.7468 C.3     1  UNL1        0.1765
     21 S         136.0644  140.7044  155.6665 S.O2    1  UNL1       -0.0025
     22 O         135.2724  140.2351  156.8508 O.2     1  UNL1       -0.1726
     23 O         136.8563  141.1736  154.4822 O.2     1  UNL1       -0.1726
     24 N         138.6441  139.4855  165.6571 N.am    1  UNL1       -0.2681
     25 C         139.6274  140.3189  166.4242 C.2     1  UNL1        0.3082
     26 O         140.6531  141.1325  165.6921 O.2     1  UNL1       -0.2522
     27 N         139.5850  140.3386  167.9236 N.am    1  UNL1       -0.2681
     28 H         137.9709  138.9515  166.1376 H       1  UNL1        0.1564
     29 H         138.9118  139.8046  168.4041 H       1  UNL1        0.1564
     30 C         140.5683  141.1720  168.6907 C.ar    1  UNL1        0.0517
     31 C         141.9060  140.6031  169.0607 C.ar    1  UNL1        0.0170
     32 C         142.8893  141.4364  169.8278 C.ar    1  UNL1        0.0309
     33 C         142.5349  142.8389  170.2251 C.ar    1  UNL1        0.1402
     34 F         143.5182  143.6722  170.9922 F       1  UNL1       -0.2042
     35 C         141.1972  143.4078  169.8551 C.ar    1  UNL1        0.0309
     36 C         140.2139  142.5743  169.0879 C.ar    1  UNL1        0.0170
@<TRIPOS>BOND
     1    20    21    1
     2    21    22    2
     3    21    23    2
     4    21    19    1
     5    19     7    1
     6     7     8   ar
     7     8     9   ar
     8     9    13    1
     9    13    14    1
    10    14    15    1
    11    15    16    1
    12    16    17    1
    13    17    18    1
    14     9    10   ar
    15    10    11   ar
    16    11     1    1
    17     1     2   ar
    18     2     3   ar
    19     3     4   ar
    20     4    24    1
    21    24    25   am
    22    25    26    2
    23    25    27   am
    24    27    30    1
    25    30    31   ar
    26    31    32   ar
    27    32    33   ar
    28    33    34    1
    29    33    35   ar
    30    35    36   ar
    31     4     5   ar
    32     5     6   ar
    33    11    12   ar
    34    12     7   ar
    35    18    13    1
    36     6     1   ar
    37    36    30   ar
    38    24    28    1
    39    27    29    1
@<TRIPOS>MOLECULE
*****
 36 39 0 0 0
SMALL
GASTEIGER

@<TRIPOS>ATOM
      1 C         143.1673  138.8505  161.0468 C.ar    1  UNL1        0.0359
      2 C         142.2054  138.0342  161.8582 C.ar    1  UNL1        0.0043
      3 C         142.2991  138.0337  163.3553 C.ar    1  UNL1        0.0148
      4 C         143.3547  138.8495  164.0410 C.ar    1  UNL1        0.0516
      5 C         144.3167  139.6657  163.2295 C.ar    1  UNL1        0.0148
      6 C         144.2229  139.6662  161.7324 C.ar    1  UNL1        0.0043
      7 C         141.9278  138.0312  157.3668 C.ar    1  UNL1        0.0872
      8 C         142.8861  138.8519  156.5556 C.ar    1  UNL1        0.0508
      9 C         143.9381  139.6722  157.2415 C.ar    1  UNL1        0.1347
     10 N         144.0318  139.6717  158.7385 N.ar    1  UNL1       -0.2119
     11 C         143.0736  138.8510  159.5497 C.ar    1  UNL1        0.1633
     12 N         142.0216  138.0307  158.8638 N.ar    1  UNL1       -0.2290
     13 N         144.8964  140.4930  156.4302 N.pl3   1  UNL1       -0.2880
     14 C         145.1155  140.1752  154.9807 C.3     1  UNL1        0.1242
     15 C         146.0737  140.9960  154.1695 C.3     1  UNL1        0.1636
     16 O         146.8130  142.1345  154.8077 O.3     1  UNL1       -0.3501
     17 C         146.5939  142.4523  156.2572 C.3     1  UNL1        0.1636
     18 C         145.6356  141.6315  157.0685 C.3     1  UNL1        0.1242
     19 C         140.8758  137.2109  156.6809 C.3     1  UNL1        0.1963
     20 C         141.6520  135.2769  154.5228 C.3     1  UNL1        0.1765
     21 S         141.2639  136.2439  155.6019 S.O2    1  UNL1       -0.0025
     22 O         140.4217  137.0023  154.6193 O.2     1  UNL1       -0.1726
     23 O         142.1061  135.4855  156.5844 O.2     1  UNL1       -0.1726
     24 N         143.4484  138.8490  165.5380 N.am    1  UNL1       -0.2681
     25 C         142.5622  139.7506  166.3452 C.2     1  UNL1        0.3082
     26 O         141.5822  140.6526  165.6553 O.2     1  UNL1       -0.2522
     27 N         142.6559  139.7501  167.8423 N.am    1  UNL1       -0.2681
     28 H         144.0917  138.2569  165.9908 H       1  UNL1        0.1564
     29 H         143.2991  139.1581  168.2951 H       1  UNL1        0.1564
     30 C         141.7696  140.6517  168.6495 C.ar    1  UNL1        0.0517
     31 C         142.1964  142.0604  168.9385 C.ar    1  UNL1        0.0170
     32 C         141.3102  142.9619  169.7457 C.ar    1  UNL1        0.0309
     33 C         139.9970  142.4549  170.2640 C.ar    1  UNL1        0.1402
     34 F         139.1107  143.3565  171.0712 F       1  UNL1       -0.2042
     35 C         139.5701  141.0462  169.9749 C.ar    1  UNL1        0.0309
     36 C         140.4565  140.1447  169.1677 C.ar    1  UNL1        0.0170
@<TRIPOS>BOND
     1    20    21    1
     2    21    22    2
     3    21    23    2
     4    21    19    1
     5    19     7    1
     6     7     8   ar
     7     8     9   ar
     8     9    13    1
     9    13    14    1
    10    14    15    1
    11    15    16    1
    12    16    17    1
    13    17    18    1
    14     9    10   ar
    15    10    11   ar
    16    11     1    1
    17     1     2   ar
    18     2     3   ar
    19     3     4   ar
    20     4    24    1
    21    24    25   am
    22    25    26    2
    23    25    27   am
    24    27    30    1
    25    30    31   ar
    26    31    32   ar
    27    32    33   ar
    28    33    34    1
    29    33    35   ar
    30    35    36   ar
    31     4     5   ar
    32     5     6   ar
    33    11    12   ar
    34    12     7   ar
    35    18    13    1
    36     6     1   ar
    37    36    30   ar
    38    24    28    1
    39    27    29    1
@<TRIPOS>MOLECULE
*****
 36 39 0 0 0
SMALL
GASTEIGER

@<TRIPOS>ATOM
      1 C         143.9279  143.0901  161.2038 C.ar    1  UNL1        0.0359
      2 C         143.0195  143.9921  161.9856 C.ar    1  UNL1        0.0043
      3 C         143.1227  144.0470  163.4811 C.ar    1  UNL1        0.0148
      4 C         144.1343  143.2000  164.1947 C.ar    1  UNL1        0.0516
      5 C         145.0427  142.2980  163.4127 C.ar    1  UNL1        0.0148
      6 C         144.9395  142.2430  161.9173 C.ar    1  UNL1        0.0043
      7 C         144.6704  142.1250  157.4266 C.ar    1  UNL1        0.0872
      8 C         143.6183  142.9252  156.7175 C.ar    1  UNL1        0.0508
      9 C         142.6695  143.7804  157.5038 C.ar    1  UNL1        0.1347
     10 N         142.7726  143.8353  158.9992 N.ar    1  UNL1       -0.2119
     11 C         143.8247  143.0351  159.7083 C.ar    1  UNL1        0.1633
     12 N         144.7735  142.1800  158.9220 N.ar    1  UNL1       -0.2290
     13 N         141.6174  144.5806  156.7946 N.pl3   1  UNL1       -0.2880
     14 C         140.8846  145.6683  157.5227 C.3     1  UNL1        0.1242
     15 C         139.8326  146.4685  156.8136 C.3     1  UNL1        0.1636
     16 O         139.5133  146.1810  155.3764 O.3     1  UNL1       -0.3501
     17 C         140.2460  145.0934  154.6483 C.3     1  UNL1        0.1636
     18 C         141.2981  144.2931  155.3575 C.3     1  UNL1        0.1242
     19 C         145.6193  141.2698  156.6402 C.3     1  UNL1        0.1963
     20 C         147.5215  142.5364  154.6967 C.3     1  UNL1        0.1765
     21 S         146.5704  141.9031  155.6685 S.O2    1  UNL1       -0.0025
     22 O         145.8173  141.2844  154.5283 O.2     1  UNL1       -0.1726
     23 O         147.3234  142.5217  156.8088 O.2     1  UNL1       -0.1726
     24 N         144.2375  143.2549  165.6901 N.am    1  UNL1       -0.2681
     25 C         143.2820  142.4679  166.5372 C.2     1  UNL1        0.3082
     26 O         142.2233  141.6261  165.8889 O.2     1  UNL1       -0.2522
     27 N         143.3852  142.5228  168.0327 N.am    1  UNL1       -0.2681
     28 H         144.9324  143.8074  166.1156 H       1  UNL1        0.1564
     29 H         144.0801  143.0753  168.4582 H       1  UNL1        0.1564
     30 C         142.4297  141.7359  168.8798 C.ar    1  UNL1        0.0517
     31 C         141.2042  142.3960  169.4387 C.ar    1  UNL1        0.0170
     32 C         140.2486  141.6090  170.2858 C.ar    1  UNL1        0.0309
     33 C         140.5186  140.1619  170.5740 C.ar    1  UNL1        0.1402
     34 F         139.5631  139.3749  171.4211 F       1  UNL1       -0.2042
     35 C         141.7441  139.5018  170.0151 C.ar    1  UNL1        0.0309
     36 C         142.6997  140.2888  169.1680 C.ar    1  UNL1        0.0170
@<TRIPOS>BOND
     1    20    21    1
     2    21    22    2
     3    21    23    2
     4    21    19    1
     5    19     7    1
     6     7     8   ar
     7     8     9   ar
     8     9    13    1
     9    13    14    1
    10    14    15    1
    11    15    16    1
    12    16    17    1
    13    17    18    1
    14     9    10   ar
    15    10    11   ar
    16    11     1    1
    17     1     2   ar
    18     2     3   ar
    19     3     4   ar
    20     4    24    1
    21    24    25   am
    22    25    26    2
    23    25    27   am
    24    27    30    1
    25    30    31   ar
    26    31    32   ar
    27    32    33   ar
    28    33    34    1
    29    33    35   ar
    30    35    36   ar
    31     4     5   ar
    32     5     6   ar
    33    11    12   ar
    34    12     7   ar
    35    18    13    1
    36     6     1   ar
    37    36    30   ar
    38    24    28    1
    39    27    29    1
@<TRIPOS>MOLECULE
*****
 36 39 0 0 0
SMALL
GASTEIGER

@<TRIPOS>ATOM
      1 C         143.1013  138.8305  161.0836 C.ar    1  UNL1        0.0359
      2 C         144.1654  139.6314  161.7736 C.ar    1  UNL1        0.0043
      3 C         144.2587  139.6224  163.2707 C.ar    1  UNL1        0.0148
      4 C         143.2878  138.8124  164.0778 C.ar    1  UNL1        0.0516
      5 C         142.2236  138.0115  163.3877 C.ar    1  UNL1        0.0148
      6 C         142.1304  138.0205  161.8906 C.ar    1  UNL1        0.0043
      7 C         141.8488  138.0497  157.3996 C.ar    1  UNL1        0.0872
      8 C         142.8214  138.8574  156.5924 C.ar    1  UNL1        0.0508
      9 C         143.8873  139.6562  157.2822 C.ar    1  UNL1        0.1347
     10 N         143.9806  139.6472  158.7793 N.ar    1  UNL1       -0.2119
     11 C         143.0080  138.8395  159.5865 C.ar    1  UNL1        0.1633
     12 N         141.9421  138.0407  158.8966 N.ar    1  UNL1       -0.2290
     13 N         144.8599  140.4640  156.4750 N.pl3   1  UNL1       -0.2880
     14 C         145.1129  140.1159  155.0380 C.3     1  UNL1        0.1242
     15 C         146.0855  140.9236  154.2307 C.3     1  UNL1        0.1636
     16 O         146.8050  142.0795  154.8604 O.3     1  UNL1       -0.3501
     17 C         146.5519  142.4275  156.2973 C.3     1  UNL1        0.1636
     18 C         145.5793  141.6198  157.1046 C.3     1  UNL1        0.1242
     19 C         140.7830  137.2509  156.7097 C.3     1  UNL1        0.1963
     20 C         141.4655  135.6116  154.2917 C.3     1  UNL1        0.1765
     21 S         141.1242  136.4313  155.5007 S.O2    1  UNL1       -0.0025
     22 O         141.9062  135.4852  156.3628 O.2     1  UNL1       -0.1726
     23 O         140.3422  137.3774  154.6386 O.2     1  UNL1       -0.1726
     24 N         143.3810  138.8034  165.5748 N.am    1  UNL1       -0.2681
     25 C         142.5250  139.7310  166.3851 C.2     1  UNL1        0.3082
     26 O         141.5757  140.6677  165.6984 O.2     1  UNL1       -0.2522
     27 N         142.6182  139.7220  167.8822 N.am    1  UNL1       -0.2681
     28 H         144.0040  138.1886  166.0255 H       1  UNL1        0.1564
     29 H         143.2412  139.1072  168.3330 H       1  UNL1        0.1564
     30 C         141.7621  140.6496  168.6926 C.ar    1  UNL1        0.0517
     31 C         140.4293  140.1872  169.2022 C.ar    1  UNL1        0.0170
     32 C         139.5732  141.1148  170.0125 C.ar    1  UNL1        0.0309
     33 C         140.0500  142.5049  170.3133 C.ar    1  UNL1        0.1402
     34 F         139.1940  143.4326  171.1236 F       1  UNL1       -0.2042
     35 C         141.3829  142.9673  169.8036 C.ar    1  UNL1        0.0309
     36 C         142.2389  142.0396  168.9933 C.ar    1  UNL1        0.0170
@<TRIPOS>BOND
     1    20    21    1
     2    21    22    2
     3    21    23    2
     4    21    19    1
     5    19     7    1
     6     7     8   ar
     7     8     9   ar
     8     9    13    1
     9    13    14    1
    10    14    15    1
    11    15    16    1
    12    16    17    1
    13    17    18    1
    14     9    10   ar
    15    10    11   ar
    16    11     1    1
    17     1     2   ar
    18     2     3   ar
    19     3     4   ar
    20     4    24    1
    21    24    25   am
    22    25    26    2
    23    25    27   am
    24    27    30    1
    25    30    31   ar
    26    31    32   ar
    27    32    33   ar
    28    33    34    1
    29    33    35   ar
    30    35    36   ar
    31     4     5   ar
    32     5     6   ar
    33    11    12   ar
    34    12     7   ar
    35    18    13    1
    36     6     1   ar
    37    36    30   ar
    38    24    28    1
    39    27    29    1
@<TRIPOS>MOLECULE
*****
 36 39 0 0 0
SMALL
GASTEIGER

@<TRIPOS>ATOM
      1 C         142.3651  138.3556  161.1821 C.ar    1  UNL1        0.0359
      2 C         141.5135  137.6979  162.2271 C.ar    1  UNL1        0.0043
      3 C         141.8222  137.8983  163.6813 C.ar    1  UNL1        0.0148
      4 C         142.9826  138.7563  164.0904 C.ar    1  UNL1        0.0516
      5 C         143.8342  139.4140  163.0452 C.ar    1  UNL1        0.0148
      6 C         143.5255  139.2137  161.5911 C.ar    1  UNL1        0.0043
      7 C         142.6230  137.0704  157.4362 C.ar    1  UNL1        0.0872
      8 C         141.4391  137.7546  156.8196 C.ar    1  UNL1        0.0508
      9 C         140.5638  138.6392  157.6572 C.ar    1  UNL1        0.1347
     10 N         140.8725  138.8395  159.1113 N.ar    1  UNL1       -0.2119
     11 C         142.0564  138.1553  159.7278 C.ar    1  UNL1        0.1633
     12 N         142.9316  137.2707  158.8903 N.ar    1  UNL1       -0.2290
     13 N         139.3799  139.3234  157.0405 N.pl3   1  UNL1       -0.2880
     14 C         138.9829  139.0083  155.6287 C.3     1  UNL1        0.1242
     15 C         137.7990  139.6925  155.0121 C.3     1  UNL1        0.1636
     16 O         137.0121  140.6918  155.8072 O.3     1  UNL1       -0.3501
     17 C         137.4090  141.0069  157.2190 C.3     1  UNL1        0.1636
     18 C         138.5930  140.3226  157.8357 C.3     1  UNL1        0.1242
     19 C         143.4982  136.1858  156.5986 C.3     1  UNL1        0.1963
     20 C         142.6363  133.3810  155.9738 C.3     1  UNL1        0.1765
     21 S         143.0673  134.7835  156.2862 S.O2    1  UNL1       -0.0025
     22 O         143.4498  134.3571  157.6725 O.2     1  UNL1       -0.1726
     23 O         142.6848  135.2098  154.8999 O.2     1  UNL1       -0.1726
     24 N         143.2913  138.9567  165.5445 N.am    1  UNL1       -0.2681
     25 C         142.4037  139.8239  166.3871 C.2     1  UNL1        0.3082
     26 O         141.2074  140.4908  165.7755 O.2     1  UNL1       -0.2522
     27 N         142.7124  140.0243  167.8413 N.am    1  UNL1       -0.2681
     28 H         144.0766  138.5190  165.9458 H       1  UNL1        0.1564
     29 H         143.4977  139.5866  168.2426 H       1  UNL1        0.1564
     30 C         141.8248  140.8915  168.6838 C.ar    1  UNL1        0.0517
     31 C         142.2138  142.3124  168.9664 C.ar    1  UNL1        0.0170
     32 C         141.3262  143.1796  169.8089 C.ar    1  UNL1        0.0309
     33 C         140.0495  142.6260  170.3690 C.ar    1  UNL1        0.1402
     34 F         139.1619  143.4933  171.2116 F       1  UNL1       -0.2042
     35 C         139.6605  141.2052  170.0865 C.ar    1  UNL1        0.0309
     36 C         140.5482  140.3379  169.2439 C.ar    1  UNL1        0.0170
@<TRIPOS>BOND
     1    20    21    1
     2    21    22    2
     3    21    23    2
     4    21    19    1
     5    19     7    1
     6     7     8   ar
     7     8     9   ar
     8     9    13    1
     9    13    14    1
    10    14    15    1
    11    15    16    1
    12    16    17    1
    13    17    18    1
    14     9    10   ar
    15    10    11   ar
    16    11     1    1
    17     1     2   ar
    18     2     3   ar
    19     3     4   ar
    20     4    24    1
    21    24    25   am
    22    25    26    2
    23    25    27   am
    24    27    30    1
    25    30    31   ar
    26    31    32   ar
    27    32    33   ar
    28    33    34    1
    29    33    35   ar
    30    35    36   ar
    31     4     5   ar
    32     5     6   ar
    33    11    12   ar
    34    12     7   ar
    35    18    13    1
    36     6     1   ar
    37    36    30   ar
    38    24    28    1
    39    27    29    1
@<TRIPOS>MOLECULE
*****
 36 39 0 0 0
SMALL
GASTEIGER

@<TRIPOS>ATOM
      1 C         139.5184  143.8814  161.2713 C.ar    1  UNL1        0.0359
      2 C         140.6138  144.5773  162.0235 C.ar    1  UNL1        0.0043
      3 C         140.5954  144.6019  163.5232 C.ar    1  UNL1        0.0148
      4 C         139.4816  143.9306  164.2707 C.ar    1  UNL1        0.0516
      5 C         138.3861  143.2347  163.5185 C.ar    1  UNL1        0.0148
      6 C         138.4046  143.2101  162.0188 C.ar    1  UNL1        0.0043
      7 C         140.2650  144.9138  157.5128 C.ar    1  UNL1        0.0872
      8 C         139.5736  143.8076  156.7723 C.ar    1  UNL1        0.0508
      9 C         138.8639  142.7259  157.5315 C.ar    1  UNL1        0.1347
     10 N         138.8455  142.7505  159.0311 N.ar    1  UNL1       -0.2119
     11 C         139.5368  143.8568  159.7716 C.ar    1  UNL1        0.1633
     12 N         140.2465  144.9384  159.0124 N.ar    1  UNL1       -0.2290
     13 N         138.1726  141.6197  156.7910 N.pl3   1  UNL1       -0.2880
     14 C         138.9793  140.5496  156.1171 C.3     1  UNL1        0.1242
     15 C         138.2881  139.4434  155.3766 C.3     1  UNL1        0.1636
     16 O         136.7900  139.4072  155.3099 O.3     1  UNL1       -0.3501
     17 C         135.9832  140.4773  155.9837 C.3     1  UNL1        0.1636
     18 C         136.6745  141.5836  156.7242 C.3     1  UNL1        0.1242
     19 C         140.9747  145.9954  156.7536 C.3     1  UNL1        0.1963
     20 C         139.5216  147.5395  154.6312 C.3     1  UNL1        0.1765
     21 S         140.2481  146.7675  155.6924 S.O2    1  UNL1       -0.0025
     22 O         141.2016  146.2446  154.6592 O.2     1  UNL1       -0.1726
     23 O         139.2947  147.2903  156.7257 O.2     1  UNL1       -0.1726
     24 N         139.4632  143.9553  165.7704 N.am    1  UNL1       -0.2681
     25 C         140.3079  142.9890  166.5467 C.2     1  UNL1        0.3082
     26 O         141.1710  141.9981  165.8234 O.2     1  UNL1       -0.2522
     27 N         140.2895  143.0136  168.0465 N.am    1  UNL1       -0.2681
     28 H         138.8966  144.6056  166.2451 H       1  UNL1        0.1564
     29 H         139.7230  143.6639  168.5212 H       1  UNL1        0.1564
     30 C         141.1342  142.0473  168.8228 C.ar    1  UNL1        0.0517
     31 C         142.5220  142.4328  169.2416 C.ar    1  UNL1        0.0170
     32 C         143.3667  141.4665  170.0180 C.ar    1  UNL1        0.0309
     33 C         142.8236  140.1147  170.3756 C.ar    1  UNL1        0.1402
     34 F         143.6683  139.1485  171.1519 F       1  UNL1       -0.2042
     35 C         141.4358  139.7293  169.9567 C.ar    1  UNL1        0.0309
     36 C         140.5911  140.6956  169.1803 C.ar    1  UNL1        0.0170
@<TRIPOS>BOND
     1    20    21    1
     2    21    22    2
     3    21    23    2
     4    21    19    1
     5    19     7    1
     6     7     8   ar
     7     8     9   ar
     8     9    13    1
     9    13    14    1
    10    14    15    1
    11    15    16    1
    12    16    17    1
    13    17    18    1
    14     9    10   ar
    15    10    11   ar
    16    11     1    1
    17     1     2   ar
    18     2     3   ar
    19     3     4   ar
    20     4    24    1
    21    24    25   am
    22    25    26    2
    23    25    27   am
    24    27    30    1
    25    30    31   ar
    26    31    32   ar
    27    32    33   ar
    28    33    34    1
    29    33    35   ar
    30    35    36   ar
    31     4     5   ar
    32     5     6   ar
    33    11    12   ar
    34    12     7   ar
    35    18    13    1
    36     6     1   ar
    37    36    30   ar
    38    24    28    1
    39    27    29    1
@<TRIPOS>MOLECULE
*****
 36 39 0 0 0
SMALL
GASTEIGER

@<TRIPOS>ATOM
      1 C         138.4827  140.5531  159.7206 C.ar    1  UNL1        0.0359
      2 C         137.4748  139.8855  160.6085 C.ar    1  UNL1        0.0043
      3 C         137.9053  139.2889  161.9157 C.ar    1  UNL1        0.0148
      4 C         139.3437  139.3599  162.3350 C.ar    1  UNL1        0.0516
      5 C         140.3517  140.0275  161.4471 C.ar    1  UNL1        0.0148
      6 C         139.9212  140.6241  160.1399 C.ar    1  UNL1        0.0043
      7 C         136.6228  141.0292  156.2473 C.ar    1  UNL1        0.0872
      8 C         137.1913  142.3429  155.7991 C.ar    1  UNL1        0.0508
      9 C         138.1903  143.0600  156.6580 C.ar    1  UNL1        0.1347
     10 N         138.6207  142.4634  157.9651 N.ar    1  UNL1       -0.2119
     11 C         138.0522  141.1498  158.4134 C.ar    1  UNL1        0.1633
     12 N         137.0533  140.4326  157.5545 N.ar    1  UNL1       -0.2290
     13 N         138.7588  144.3738  156.2097 N.pl3   1  UNL1       -0.2880
     14 C         137.9614  145.2668  155.3059 C.3     1  UNL1        0.1242
     15 C         138.5298  146.5805  154.8576 C.3     1  UNL1        0.1636
     16 O         139.8957  147.0012  155.3130 O.3     1  UNL1       -0.3501
     17 C         140.6931  146.1082  156.2168 C.3     1  UNL1        0.1636
     18 C         140.1246  144.7945  156.6651 C.3     1  UNL1        0.1242
     19 C         135.6238  140.3121  155.3884 C.3     1  UNL1        0.1963
     20 C         132.7349  140.2343  156.1937 C.3     1  UNL1        0.1765
     21 S         134.1794  140.2732  155.7910 S.O2    1  UNL1       -0.0025
     22 O         134.3476  138.8577  156.2578 O.2     1  UNL1       -0.1726
     23 O         134.0112  141.6887  155.3242 O.2     1  UNL1       -0.1726
     24 N         139.7742  138.7633  163.6422 N.am    1  UNL1       -0.2681
     25 C         140.0006  139.6481  164.8320 C.2     1  UNL1        0.3082
     26 O         139.7964  141.1295  164.7147 O.2     1  UNL1       -0.2522
     27 N         140.4311  139.0515  166.1393 N.am    1  UNL1       -0.2681
     28 H         139.9082  137.7910  163.7191 H       1  UNL1        0.1564
     29 H         140.5651  138.0792  166.2163 H       1  UNL1        0.1564
     30 C         140.6574  139.9363  167.3291 C.ar    1  UNL1        0.0517
     31 C         139.5832  140.0899  168.3647 C.ar    1  UNL1        0.0170
     32 C         139.8095  140.9748  169.5546 C.ar    1  UNL1        0.0309
     33 C         141.1101  141.7060  169.7089 C.ar    1  UNL1        0.1402
     34 F         141.3365  142.5908  170.8988 F       1  UNL1       -0.2042
     35 C         142.1844  141.5524  168.6733 C.ar    1  UNL1        0.0309
     36 C         141.9580  140.6676  167.4834 C.ar    1  UNL1        0.0170
@<TRIPOS>BOND
     1    20    21    1
     2    21    22    2
     3    21    23    2
     4    21    19    1
     5    19     7    1
     6     7     8   ar
     7     8     9   ar
     8     9    13    1
     9    13    14    1
    10    14    15    1
    11    15    16    1
    12    16    17    1
    13    17    18    1
    14     9    10   ar
    15    10    11   ar
    16    11     1    1
    17     1     2   ar
    18     2     3   ar
    19     3     4   ar
    20     4    24    1
    21    24    25   am
    22    25    26    2
    23    25    27   am
    24    27    30    1
    25    30    31   ar
    26    31    32   ar
    27    32    33   ar
    28    33    34    1
    29    33    35   ar
    30    35    36   ar
    31     4     5   ar
    32     5     6   ar
    33    11    12   ar
    34    12     7   ar
    35    18    13    1
    36     6     1   ar
    37    36    30   ar
    38    24    28    1
    39    27    29    1
