@<TRIPOS>MOLECULE
*****
 33 37 0 0 0
SMALL
GASTEIGER

@<TRIPOS>ATOM
      1 C         142.1453  137.9525  164.1312 C.3     1  UNL1        0.0004
      2 C         142.5555  138.1272  162.6990 C.3     1  UNL1        0.0014
      3 C         143.7000  139.0324  162.3518 C.3     1  UNL1        0.0157
      4 C         144.4344  139.7629  163.4367 C.3     1  UNL1        0.0542
      5 C         144.0242  139.5881  164.8689 C.3     1  UNL1        0.0157
      6 C         142.8796  138.6829  165.2162 C.3     1  UNL1        0.0014
      7 N         145.5790  140.6680  163.0895 N.3     1  UNL1       -0.2948
      8 H         145.6609  140.6623  162.0728 H       1  UNL1        0.1235
      9 C         145.5530  142.1065  163.5137 C.3     1  UNL1        0.0957
     10 C         144.3160  142.9284  163.3031 C.ar    1  UNL1       -0.0032
     11 C         143.5131  143.3910  164.4827 C.ar    1  UNL1        0.0004
     12 C         142.2761  144.2128  164.2721 C.ar    1  UNL1        0.0398
     13 C         141.8419  144.5720  162.8819 C.ar    1  UNL1        0.1724
     14 C         142.6448  144.1094  161.7024 C.ar    1  UNL1        0.1721
     15 C         143.8818  143.2875  161.9130 C.ar    1  UNL1        0.0371
     16 O         142.2106  144.4686  160.3123 O.3     1  UNL1       -0.4684
     17 C         140.9736  145.2904  160.1016 C.3     1  UNL1        0.2526
     18 C         140.1707  145.7531  161.2812 C.3     1  UNL1        0.2526
     19 O         140.6048  145.3939  162.6714 O.3     1  UNL1       -0.4684
     20 C         141.0007  137.0473  164.4785 C.3     1  UNL1        0.0047
     21 C         139.6535  137.6280  164.7914 C.3     1  UNL1        0.0265
     22 C         139.5088  142.0522  165.6014 C.ar    1  UNL1        0.1388
     23 C         138.8430  142.9725  164.6218 C.ar    1  UNL1        0.0384
     24 C         138.2253  142.4182  163.3723 C.ar    1  UNL1        0.0222
     25 C         138.2735  140.9436  163.1024 C.ar    1  UNL1        0.0812
     26 N         137.6559  140.3892  161.8529 N.ar    1  UNL1       -0.2439
     27 C         137.7041  138.9146  161.5829 C.ar    1  UNL1        0.0985
     28 C         138.3700  137.9941  162.5624 C.ar    1  UNL1        0.0164
     29 C         138.9876  138.5484  163.8119 C.ar    1  UNL1       -0.0191
     30 C         138.9394  140.0232  164.0819 C.ar    1  UNL1        0.0168
     31 C         139.5570  140.5775  165.3314 C.ar    1  UNL1        0.0381
     32 C         141.4299  142.0575  167.3505 C.3     1  UNL1        0.2525
     33 O         140.1265  142.6065  166.8509 O.3     1  UNL1       -0.4714
@<TRIPOS>BOND
     1    32    33    1
     2    33    22    1
     3    22    23   ar
     4    23    24   ar
     5    24    25   ar
     6    25    26   ar
     7    26    27   ar
     8    27    28   ar
     9    28    29   ar
    10    29    21    1
    11    21    20    1
    12     1    20    1
    13     1     2    1
    14     2     3    1
    15     3     4    1
    16     4     7    1
    17     7     9    1
    18     9    10    1
    19    10    11   ar
    20    11    12   ar
    21    12    13   ar
    22    13    14   ar
    23    14    15   ar
    24    14    16    1
    25    16    17    1
    26    17    18    1
    27    18    19    1
    28     4     5    1
    29     5     6    1
    30    29    30   ar
    31    30    31   ar
    32    31    22   ar
    33    30    25   ar
    34     6     1    1
    35    15    10   ar
    36    19    13    1
    37     7     8    1
@<TRIPOS>MOLECULE
*****
 33 37 0 0 0
SMALL
GASTEIGER

@<TRIPOS>ATOM
      1 C         139.3275  137.6200  164.6927 C.3     1  UNL1        0.0004
      2 C         138.8971  137.8609  163.2762 C.3     1  UNL1        0.0014
      3 C         139.9128  137.8552  162.1724 C.3     1  UNL1        0.0157
      4 C         141.3590  137.6087  162.4852 C.3     1  UNL1        0.0542
      5 C         141.7894  137.3678  163.9018 C.3     1  UNL1        0.0157
      6 C         140.7736  137.3734  165.0056 C.3     1  UNL1        0.0014
      7 N         142.3747  137.6030  161.3815 N.3     1  UNL1       -0.2948
      8 H         141.9674  138.1226  160.6039 H       1  UNL1        0.1235
      9 C         143.7410  138.1757  161.6166 C.3     1  UNL1        0.0957
     10 C         143.8914  139.4943  162.3155 C.ar    1  UNL1       -0.0032
     11 C         144.7087  139.5895  163.5697 C.ar    1  UNL1        0.0004
     12 C         144.8591  140.9082  164.2686 C.ar    1  UNL1        0.0398
     13 C         144.1922  142.1317  163.7134 C.ar    1  UNL1        0.1724
     14 C         143.3750  142.0366  162.4592 C.ar    1  UNL1        0.1721
     15 C         143.2245  140.7179  161.7603 C.ar    1  UNL1        0.0371
     16 O         142.7081  143.2601  161.9040 O.3     1  UNL1       -0.4684
     17 C         142.8585  144.5787  162.6029 C.3     1  UNL1        0.2526
     18 C         143.6758  144.6739  163.8571 C.3     1  UNL1        0.2526
     19 O         144.3427  143.4504  164.4123 O.3     1  UNL1       -0.4684
     20 C         138.3118  137.6256  165.7965 C.3     1  UNL1        0.0047
     21 C         137.9306  138.9167  166.4584 C.3     1  UNL1        0.0265
     22 C         138.4112  142.3149  163.5479 C.ar    1  UNL1        0.1388
     23 C         139.4506  143.3688  163.7905 C.ar    1  UNL1        0.0384
     24 C         140.3298  143.2900  165.0033 C.ar    1  UNL1        0.0222
     25 C         140.1696  142.1573  165.9734 C.ar    1  UNL1        0.0812
     26 N         141.0488  142.0785  167.1862 N.ar    1  UNL1       -0.2439
     27 C         140.8886  140.9457  168.1564 C.ar    1  UNL1        0.0985
     28 C         139.8492  139.8918  167.9138 C.ar    1  UNL1        0.0164
     29 C         138.9700  139.9706  166.7010 C.ar    1  UNL1       -0.0191
     30 C         139.1302  141.1034  165.7308 C.ar    1  UNL1        0.0168
     31 C         138.2510  141.1822  164.5181 C.ar    1  UNL1        0.0381
     32 C         138.1444  142.5229  160.9720 C.3     1  UNL1        0.2525
     33 O         137.5320  142.3937  162.3351 O.3     1  UNL1       -0.4714
@<TRIPOS>BOND
     1    32    33    1
     2    33    22    1
     3    22    23   ar
     4    23    24   ar
     5    24    25   ar
     6    25    26   ar
     7    26    27   ar
     8    27    28   ar
     9    28    29   ar
    10    29    21    1
    11    21    20    1
    12     1    20    1
    13     1     2    1
    14     2     3    1
    15     3     4    1
    16     4     7    1
    17     7     9    1
    18     9    10    1
    19    10    11   ar
    20    11    12   ar
    21    12    13   ar
    22    13    14   ar
    23    14    15   ar
    24    14    16    1
    25    16    17    1
    26    17    18    1
    27    18    19    1
    28     4     5    1
    29     5     6    1
    30    29    30   ar
    31    30    31   ar
    32    31    22   ar
    33    30    25   ar
    34     6     1    1
    35    15    10   ar
    36    19    13    1
    37     7     8    1
@<TRIPOS>MOLECULE
*****
 33 37 0 0 0
SMALL
GASTEIGER

@<TRIPOS>ATOM
      1 C         143.0815  144.0011  162.6113 C.3     1  UNL1        0.0004
      2 C         142.4502  144.7426  163.7523 C.3     1  UNL1        0.0014
      3 C         141.0092  145.1518  163.6751 C.3     1  UNL1        0.0157
      4 C         140.1994  144.8197  162.4569 C.3     1  UNL1        0.0542
      5 C         140.8307  144.0782  161.3159 C.3     1  UNL1        0.0157
      6 C         142.2718  143.6689  161.3932 C.3     1  UNL1        0.0014
      7 N         138.7584  145.2289  162.3797 N.3     1  UNL1       -0.2948
      8 H         138.5160  145.2678  161.3896 H       1  UNL1        0.1235
      9 C         137.7056  144.3976  163.0509 C.3     1  UNL1        0.0957
     10 C         137.9815  142.9603  163.3795 C.ar    1  UNL1       -0.0032
     11 C         138.4263  142.5786  164.7603 C.ar    1  UNL1        0.0004
     12 C         138.7021  141.1413  165.0889 C.ar    1  UNL1        0.0398
     13 C         138.5333  140.0856  164.0367 C.ar    1  UNL1        0.1724
     14 C         138.0886  140.4672  162.6560 C.ar    1  UNL1        0.1721
     15 C         137.8127  141.9046  162.3273 C.ar    1  UNL1        0.0371
     16 O         137.9197  139.4116  161.6038 O.3     1  UNL1       -0.4684
     17 C         138.1956  137.9743  161.9324 C.3     1  UNL1        0.2526
     18 C         138.6403  137.5926  163.3133 C.3     1  UNL1        0.2526
     19 O         138.8092  138.6483  164.3654 O.3     1  UNL1       -0.4684
     20 C         144.5225  143.5919  162.6885 C.3     1  UNL1        0.0047
     21 C         144.9615  142.5807  163.7058 C.3     1  UNL1        0.0265
     22 C         142.2773  141.5346  167.1628 C.ar    1  UNL1        0.1388
     23 C         141.6150  140.1899  167.2179 C.ar    1  UNL1        0.0384
     24 C         141.8474  139.1939  166.1207 C.ar    1  UNL1        0.0222
     25 C         142.7421  139.5425  164.9684 C.ar    1  UNL1        0.0812
     26 N         142.9745  138.5465  163.8712 N.ar    1  UNL1       -0.2439
     27 C         143.8692  138.8952  162.7189 C.ar    1  UNL1        0.0985
     28 C         144.5316  140.2399  162.6637 C.ar    1  UNL1        0.0164
     29 C         144.2992  141.2360  163.7609 C.ar    1  UNL1       -0.0191
     30 C         143.4044  140.8872  164.9133 C.ar    1  UNL1        0.0168
     31 C         143.1720  141.8833  166.0105 C.ar    1  UNL1        0.0381
     32 C         140.6549  142.7775  168.7669 C.3     1  UNL1        0.2525
     33 O         142.0449  142.5307  168.2600 O.3     1  UNL1       -0.4714
@<TRIPOS>BOND
     1    32    33    1
     2    33    22    1
     3    22    23   ar
     4    23    24   ar
     5    24    25   ar
     6    25    26   ar
     7    26    27   ar
     8    27    28   ar
     9    28    29   ar
    10    29    21    1
    11    21    20    1
    12     1    20    1
    13     1     2    1
    14     2     3    1
    15     3     4    1
    16     4     7    1
    17     7     9    1
    18     9    10    1
    19    10    11   ar
    20    11    12   ar
    21    12    13   ar
    22    13    14   ar
    23    14    15   ar
    24    14    16    1
    25    16    17    1
    26    17    18    1
    27    18    19    1
    28     4     5    1
    29     5     6    1
    30    29    30   ar
    31    30    31   ar
    32    31    22   ar
    33    30    25   ar
    34     6     1    1
    35    15    10   ar
    36    19    13    1
    37     7     8    1
@<TRIPOS>MOLECULE
*****
 33 37 0 0 0
SMALL
GASTEIGER

@<TRIPOS>ATOM
      1 C         139.4090  137.7338  164.5595 C.3     1  UNL1        0.0004
      2 C         140.8407  137.4260  164.8842 C.3     1  UNL1        0.0014
      3 C         141.8599  137.3536  163.7861 C.3     1  UNL1        0.0157
      4 C         141.4475  137.5889  162.3632 C.3     1  UNL1        0.0542
      5 C         140.0157  137.8967  162.0385 C.3     1  UNL1        0.0157
      6 C         138.9965  137.9692  163.1367 C.3     1  UNL1        0.0014
      7 N         142.4667  137.5165  161.2651 N.3     1  UNL1       -0.2948
      8 H         142.0586  137.9803  160.4535 H       1  UNL1        0.1235
      9 C         143.8285  138.1127  161.4653 C.3     1  UNL1        0.0957
     10 C         143.9718  139.4476  162.1343 C.ar    1  UNL1       -0.0032
     11 C         144.8224  139.5836  163.3624 C.ar    1  UNL1        0.0004
     12 C         144.9657  140.9184  164.0314 C.ar    1  UNL1        0.0398
     13 C         144.2586  142.1173  163.4724 C.ar    1  UNL1        0.1724
     14 C         143.4080  141.9814  162.2443 C.ar    1  UNL1        0.1721
     15 C         143.2646  140.6465  161.5753 C.ar    1  UNL1        0.0371
     16 O         142.7009  143.1803  161.6853 O.3     1  UNL1       -0.4684
     17 C         142.8442  144.5151  162.3543 C.3     1  UNL1        0.2526
     18 C         143.6948  144.6511  163.5824 C.3     1  UNL1        0.2526
     19 O         144.4020  143.4522  164.1414 O.3     1  UNL1       -0.4684
     20 C         138.3897  137.8063  165.6576 C.3     1  UNL1        0.0047
     21 C         138.1962  139.0846  166.4182 C.3     1  UNL1        0.0265
     22 C         142.2095  140.4249  167.9501 C.ar    1  UNL1        0.1388
     23 C         142.8185  141.6986  167.4434 C.ar    1  UNL1        0.0384
     24 C         142.0897  142.5256  166.4260 C.ar    1  UNL1        0.0222
     25 C         140.7520  142.0788  165.9154 C.ar    1  UNL1        0.0812
     26 N         140.0232  142.9058  164.8980 N.ar    1  UNL1       -0.2439
     27 C         138.6854  142.4591  164.3874 C.ar    1  UNL1        0.0985
     28 C         138.0764  141.1853  164.8941 C.ar    1  UNL1        0.0164
     29 C         138.8052  140.3583  165.9115 C.ar    1  UNL1       -0.0191
     30 C         140.1430  140.8051  166.4221 C.ar    1  UNL1        0.0168
     31 C         140.8718  139.9782  167.4395 C.ar    1  UNL1        0.0381
     32 C         142.6675  139.7973  170.4293 C.3     1  UNL1        0.2525
     33 O         142.9383  139.5980  168.9675 O.3     1  UNL1       -0.4714
@<TRIPOS>BOND
     1    32    33    1
     2    33    22    1
     3    22    23   ar
     4    23    24   ar
     5    24    25   ar
     6    25    26   ar
     7    26    27   ar
     8    27    28   ar
     9    28    29   ar
    10    29    21    1
    11    21    20    1
    12     1    20    1
    13     1     2    1
    14     2     3    1
    15     3     4    1
    16     4     7    1
    17     7     9    1
    18     9    10    1
    19    10    11   ar
    20    11    12   ar
    21    12    13   ar
    22    13    14   ar
    23    14    15   ar
    24    14    16    1
    25    16    17    1
    26    17    18    1
    27    18    19    1
    28     4     5    1
    29     5     6    1
    30    29    30   ar
    31    30    31   ar
    32    31    22   ar
    33    30    25   ar
    34     6     1    1
    35    15    10   ar
    36    19    13    1
    37     7     8    1
@<TRIPOS>MOLECULE
*****
 33 37 0 0 0
SMALL
GASTEIGER

@<TRIPOS>ATOM
      1 C         140.6503  144.8236  163.0230 C.3     1  UNL1        0.0004
      2 C         141.7672  144.8988  164.0214 C.3     1  UNL1        0.0014
      3 C         143.1526  144.4774  163.6302 C.3     1  UNL1        0.0157
      4 C         143.4212  143.9807  162.2405 C.3     1  UNL1        0.0542
      5 C         142.3043  143.9055  161.2420 C.3     1  UNL1        0.0157
      6 C         140.9189  144.3269  161.6333 C.3     1  UNL1        0.0014
      7 N         144.8066  143.5593  161.8493 N.3     1  UNL1       -0.2948
      8 H         145.4305  143.8719  162.5932 H       1  UNL1        0.1235
      9 C         145.1102  142.1100  161.6099 C.3     1  UNL1        0.0957
     10 C         144.4426  141.0563  162.4430 C.ar    1  UNL1       -0.0032
     11 C         144.9681  140.7378  163.8114 C.ar    1  UNL1        0.0004
     12 C         144.3006  139.6841  164.6446 C.ar    1  UNL1        0.0398
     13 C         143.1076  138.9489  164.1093 C.ar    1  UNL1        0.1724
     14 C         142.5822  139.2675  162.7410 C.ar    1  UNL1        0.1721
     15 C         143.2497  140.3212  161.9078 C.ar    1  UNL1        0.0371
     16 O         141.3893  138.5323  162.2057 O.3     1  UNL1       -0.4684
     17 C         140.7218  137.4786  163.0389 C.3     1  UNL1        0.2526
     18 C         141.2472  137.1600  164.4073 C.3     1  UNL1        0.2526
     19 O         142.4401  137.8952  164.9425 O.3     1  UNL1       -0.4684
     20 C         139.2650  145.2450  163.4142 C.3     1  UNL1        0.0047
     21 C         138.5228  144.4889  164.4761 C.3     1  UNL1        0.0265
     22 C         140.8196  142.0164  167.4528 C.ar    1  UNL1        0.1388
     23 C         140.7493  140.5191  167.3971 C.ar    1  UNL1        0.0384
     24 C         139.9135  139.8459  166.3491 C.ar    1  UNL1        0.0222
     25 C         139.1479  140.6701  165.3569 C.ar    1  UNL1        0.0812
     26 N         138.3120  139.9970  164.3089 N.ar    1  UNL1       -0.2439
     27 C         137.5464  140.8211  163.3167 C.ar    1  UNL1        0.0985
     28 C         137.6166  142.3185  163.3724 C.ar    1  UNL1        0.0164
     29 C         138.4525  142.9916  164.4203 C.ar    1  UNL1       -0.0191
     30 C         139.2181  142.1674  165.4126 C.ar    1  UNL1        0.0168
     31 C         140.0540  142.8405  166.4606 C.ar    1  UNL1        0.0381
     32 C         143.0689  142.2443  168.7329 C.3     1  UNL1        0.2525
     33 O         141.6555  142.6895  168.5008 O.3     1  UNL1       -0.4714
@<TRIPOS>BOND
     1    32    33    1
     2    33    22    1
     3    22    23   ar
     4    23    24   ar
     5    24    25   ar
     6    25    26   ar
     7    26    27   ar
     8    27    28   ar
     9    28    29   ar
    10    29    21    1
    11    21    20    1
    12     1    20    1
    13     1     2    1
    14     2     3    1
    15     3     4    1
    16     4     7    1
    17     7     9    1
    18     9    10    1
    19    10    11   ar
    20    11    12   ar
    21    12    13   ar
    22    13    14   ar
    23    14    15   ar
    24    14    16    1
    25    16    17    1
    26    17    18    1
    27    18    19    1
    28     4     5    1
    29     5     6    1
    30    29    30   ar
    31    30    31   ar
    32    31    22   ar
    33    30    25   ar
    34     6     1    1
    35    15    10   ar
    36    19    13    1
    37     7     8    1
@<TRIPOS>MOLECULE
*****
 33 37 0 0 0
SMALL
GASTEIGER

@<TRIPOS>ATOM
      1 C         141.8483  138.0942  164.2735 C.3     1  UNL1        0.0004
      2 C         142.8556  138.4860  165.3136 C.3     1  UNL1        0.0014
      3 C         144.0877  139.2437  164.9166 C.3     1  UNL1        0.0157
      4 C         144.3127  139.6097  163.4794 C.3     1  UNL1        0.0542
      5 C         143.3054  139.2179  162.4392 C.3     1  UNL1        0.0157
      6 C         142.0732  138.4602  162.8363 C.3     1  UNL1        0.0014
      7 N         145.5448  140.3673  163.0824 N.3     1  UNL1       -0.2948
      8 H         145.6547  140.2441  162.0758 H       1  UNL1        0.1235
      9 C         145.6388  141.8401  163.3511 C.3     1  UNL1        0.0957
     10 C         144.4223  142.7067  163.2134 C.ar    1  UNL1       -0.0032
     11 C         143.6825  143.1608  164.4368 C.ar    1  UNL1        0.0004
     12 C         142.4660  144.0274  164.2990 C.ar    1  UNL1        0.0398
     13 C         141.9893  144.4401  162.9380 C.ar    1  UNL1        0.1724
     14 C         142.7290  143.9861  161.7147 C.ar    1  UNL1        0.1721
     15 C         143.9456  143.1194  161.8523 C.ar    1  UNL1        0.0371
     16 O         142.2523  144.3987  160.3536 O.3     1  UNL1       -0.4684
     17 C         141.0358  145.2654  160.2159 C.3     1  UNL1        0.2526
     18 C         140.2960  145.7195  161.4393 C.3     1  UNL1        0.2526
     19 O         140.7727  145.3068  162.8003 O.3     1  UNL1       -0.4684
     20 C         140.6162  137.3366  164.6705 C.3     1  UNL1        0.0047
     21 C         139.4150  138.0740  165.1839 C.3     1  UNL1        0.0265
     22 C         140.7606  141.0541  168.2755 C.ar    1  UNL1        0.1388
     23 C         140.6146  142.5239  168.0140 C.ar    1  UNL1        0.0384
     24 C         140.0200  143.0003  166.7219 C.ar    1  UNL1        0.0222
     25 C         139.5715  142.0070  165.6913 C.ar    1  UNL1        0.0812
     26 N         138.9769  142.4834  164.3992 N.ar    1  UNL1       -0.2439
     27 C         138.5284  141.4900  163.3687 C.ar    1  UNL1        0.0985
     28 C         138.6744  140.0202  163.6302 C.ar    1  UNL1        0.0164
     29 C         139.2690  139.5438  164.9223 C.ar    1  UNL1       -0.0191
     30 C         139.7175  140.5372  165.9529 C.ar    1  UNL1        0.0168
     31 C         140.3121  140.0608  167.2450 C.ar    1  UNL1        0.0381
     32 C         140.4755  140.3607  170.7630 C.3     1  UNL1        0.2525
     33 O         141.3552  140.5777  169.5676 O.3     1  UNL1       -0.4714
@<TRIPOS>BOND
     1    32    33    1
     2    33    22    1
     3    22    23   ar
     4    23    24   ar
     5    24    25   ar
     6    25    26   ar
     7    26    27   ar
     8    27    28   ar
     9    28    29   ar
    10    29    21    1
    11    21    20    1
    12     1    20    1
    13     1     2    1
    14     2     3    1
    15     3     4    1
    16     4     7    1
    17     7     9    1
    18     9    10    1
    19    10    11   ar
    20    11    12   ar
    21    12    13   ar
    22    13    14   ar
    23    14    15   ar
    24    14    16    1
    25    16    17    1
    26    17    18    1
    27    18    19    1
    28     4     5    1
    29     5     6    1
    30    29    30   ar
    31    30    31   ar
    32    31    22   ar
    33    30    25   ar
    34     6     1    1
    35    15    10   ar
    36    19    13    1
    37     7     8    1
@<TRIPOS>MOLECULE
*****
 33 37 0 0 0
SMALL
GASTEIGER

@<TRIPOS>ATOM
      1 C         141.7723  138.1715  164.3375 C.3     1  UNL1        0.0004
      2 C         141.8891  138.7182  162.9456 C.3     1  UNL1        0.0014
      3 C         143.1169  139.4777  162.5386 C.3     1  UNL1        0.0157
      4 C         144.2281  139.6904  163.5236 C.3     1  UNL1        0.0542
      5 C         144.1113  139.1437  164.9156 C.3     1  UNL1        0.0157
      6 C         142.8834  138.3842  165.3225 C.3     1  UNL1        0.0014
      7 N         145.4559  140.4498  163.1167 N.3     1  UNL1       -0.2948
      8 H         145.5626  140.3198  162.1106 H       1  UNL1        0.1235
      9 C         145.5454  141.9247  163.3747 C.3     1  UNL1        0.0957
     10 C         144.3324  142.7907  163.2056 C.ar    1  UNL1       -0.0032
     11 C         143.5762  143.2659  164.4108 C.ar    1  UNL1        0.0004
     12 C         142.3632  144.1318  164.2418 C.ar    1  UNL1        0.0398
     13 C         141.9062  144.5226  162.8676 C.ar    1  UNL1        0.1724
     14 C         142.6623  144.0474  161.6624 C.ar    1  UNL1        0.1721
     15 C         143.8754  143.1814  161.8314 C.ar    1  UNL1        0.0371
     16 O         142.2053  144.4381  160.2882 O.3     1  UNL1       -0.4684
     17 C         140.9922  145.3040  160.1191 C.3     1  UNL1        0.2526
     18 C         140.2361  145.7793  161.3244 C.3     1  UNL1        0.2526
     19 O         140.6931  145.3885  162.6986 O.3     1  UNL1       -0.4684
     20 C         140.5445  137.4121  164.7445 C.3     1  UNL1        0.0047
     21 C         139.4055  138.1279  165.4082 C.3     1  UNL1        0.0265
     22 C         137.8985  141.3808  162.6884 C.ar    1  UNL1        0.1388
     23 C         138.0466  142.8195  163.0862 C.ar    1  UNL1        0.0384
     24 C         138.6971  143.1739  164.3905 C.ar    1  UNL1        0.0222
     25 C         139.1994  142.0896  165.2971 C.ar    1  UNL1        0.0812
     26 N         139.8499  142.4440  166.6014 N.ar    1  UNL1       -0.2439
     27 C         140.3523  141.3597  167.5080 C.ar    1  UNL1        0.0985
     28 C         140.2041  139.9210  167.1103 C.ar    1  UNL1        0.0164
     29 C         139.5536  139.5666  165.8060 C.ar    1  UNL1       -0.0191
     30 C         139.0513  140.6509  164.8993 C.ar    1  UNL1        0.0168
     31 C         138.4008  140.2965  163.5950 C.ar    1  UNL1        0.0381
     32 C         137.5440  139.7084  160.7321 C.3     1  UNL1        0.2525
     33 O         137.2480  141.0264  161.3841 O.3     1  UNL1       -0.4714
@<TRIPOS>BOND
     1    32    33    1
     2    33    22    1
     3    22    23   ar
     4    23    24   ar
     5    24    25   ar
     6    25    26   ar
     7    26    27   ar
     8    27    28   ar
     9    28    29   ar
    10    29    21    1
    11    21    20    1
    12     1    20    1
    13     1     2    1
    14     2     3    1
    15     3     4    1
    16     4     7    1
    17     7     9    1
    18     9    10    1
    19    10    11   ar
    20    11    12   ar
    21    12    13   ar
    22    13    14   ar
    23    14    15   ar
    24    14    16    1
    25    16    17    1
    26    17    18    1
    27    18    19    1
    28     4     5    1
    29     5     6    1
    30    29    30   ar
    31    30    31   ar
    32    31    22   ar
    33    30    25   ar
    34     6     1    1
    35    15    10   ar
    36    19    13    1
    37     7     8    1
@<TRIPOS>MOLECULE
*****
 33 37 0 0 0
SMALL
GASTEIGER

@<TRIPOS>ATOM
      1 C         137.9722  139.9397  162.1798 C.3     1  UNL1        0.0004
      2 C         137.5584  140.6116  163.4555 C.3     1  UNL1        0.0014
      3 C         137.5162  142.1089  163.5351 C.3     1  UNL1        0.0157
      4 C         137.8880  142.9343  162.3390 C.3     1  UNL1        0.0542
      5 C         138.3017  142.2624  161.0634 C.3     1  UNL1        0.0157
      6 C         138.3438  140.7651  160.9838 C.3     1  UNL1        0.0014
      7 N         137.8458  144.4316  162.4187 N.3     1  UNL1       -0.2948
      8 H         137.1821  144.6687  163.1560 H       1  UNL1        0.1235
      9 C         139.1008  145.2032  162.7011 C.3     1  UNL1        0.0957
     10 C         140.3728  144.4754  163.0207 C.ar    1  UNL1       -0.0032
     11 C         140.6439  144.0196  164.4239 C.ar    1  UNL1        0.0004
     12 C         141.9159  143.2918  164.7435 C.ar    1  UNL1        0.0398
     13 C         142.9170  143.0199  163.6600 C.ar    1  UNL1        0.1724
     14 C         142.6460  143.4757  162.2569 C.ar    1  UNL1        0.1721
     15 C         141.3738  144.2035  161.9372 C.ar    1  UNL1        0.0371
     16 O         143.6470  143.2037  161.1734 O.3     1  UNL1       -0.4684
     17 C         144.9191  142.4760  161.4930 C.3     1  UNL1        0.2526
     18 C         145.1901  142.0201  162.8962 C.3     1  UNL1        0.2526
     19 O         144.1891  142.2921  163.9797 O.3     1  UNL1       -0.4684
     20 C         138.0143  138.4424  162.1002 C.3     1  UNL1        0.0047
     21 C         138.8807  137.6651  163.0464 C.3     1  UNL1        0.0265
     22 C         140.2551  139.6211  166.8589 C.ar    1  UNL1        0.1388
     23 C         141.6977  139.9935  167.0329 C.ar    1  UNL1        0.0384
     24 C         142.6821  139.7139  165.9362 C.ar    1  UNL1        0.0222
     25 C         142.2239  139.0620  164.6654 C.ar    1  UNL1        0.0812
     26 N         143.2083  138.7824  163.5687 N.ar    1  UNL1       -0.2439
     27 C         142.7502  138.1304  162.2979 C.ar    1  UNL1        0.0985
     28 C         141.3076  137.7580  162.1237 C.ar    1  UNL1        0.0164
     29 C         140.3232  138.0375  163.2205 C.ar    1  UNL1       -0.0191
     30 C         140.7814  138.6895  164.4913 C.ar    1  UNL1        0.0168
     31 C         139.7970  138.9691  165.5880 C.ar    1  UNL1        0.0381
     32 C         139.6877  140.7060  169.1503 C.3     1  UNL1        0.2525
     33 O         139.2707  139.9006  167.9556 O.3     1  UNL1       -0.4714
@<TRIPOS>BOND
     1    32    33    1
     2    33    22    1
     3    22    23   ar
     4    23    24   ar
     5    24    25   ar
     6    25    26   ar
     7    26    27   ar
     8    27    28   ar
     9    28    29   ar
    10    29    21    1
    11    21    20    1
    12     1    20    1
    13     1     2    1
    14     2     3    1
    15     3     4    1
    16     4     7    1
    17     7     9    1
    18     9    10    1
    19    10    11   ar
    20    11    12   ar
    21    12    13   ar
    22    13    14   ar
    23    14    15   ar
    24    14    16    1
    25    16    17    1
    26    17    18    1
    27    18    19    1
    28     4     5    1
    29     5     6    1
    30    29    30   ar
    31    30    31   ar
    32    31    22   ar
    33    30    25   ar
    34     6     1    1
    35    15    10   ar
    36    19    13    1
    37     7     8    1
@<TRIPOS>MOLECULE
*****
 33 37 0 0 0
SMALL
GASTEIGER

@<TRIPOS>ATOM
      1 C         139.1883  144.1546  162.8643 C.3     1  UNL1        0.0004
      2 C         139.8808  144.0559  161.5374 C.3     1  UNL1        0.0014
      3 C         141.3359  144.4019  161.4232 C.3     1  UNL1        0.0157
      4 C         142.0985  144.8467  162.6359 C.3     1  UNL1        0.0542
      5 C         141.4060  144.9455  163.9628 C.3     1  UNL1        0.0157
      6 C         139.9508  144.5994  164.0770 C.3     1  UNL1        0.0014
      7 N         143.5535  145.1927  162.5217 N.3     1  UNL1       -0.2948
      8 H         143.7172  145.9855  163.1423 H       1  UNL1        0.1235
      9 C         144.5966  144.1652  162.8475 C.3     1  UNL1        0.0957
     10 C         144.1909  142.7508  163.1386 C.ar    1  UNL1       -0.0032
     11 C         144.1312  141.7440  162.0282 C.ar    1  UNL1        0.0004
     12 C         143.7255  140.3296  162.3193 C.ar    1  UNL1        0.0398
     13 C         143.3795  139.9219  163.7208 C.ar    1  UNL1        0.1724
     14 C         143.4392  140.9286  164.8311 C.ar    1  UNL1        0.1721
     15 C         143.8449  142.3431  164.5400 C.ar    1  UNL1        0.0371
     16 O         143.0932  140.5209  166.2325 O.3     1  UNL1       -0.4684
     17 C         142.6875  139.1065  166.5236 C.3     1  UNL1        0.2526
     18 C         142.6278  138.0997  165.4133 C.3     1  UNL1        0.2526
     19 O         142.9738  138.5074  164.0118 O.3     1  UNL1       -0.4684
     20 C         137.7333  143.8086  162.9785 C.3     1  UNL1        0.0047
     21 C         137.3192  142.4938  163.5700 C.3     1  UNL1        0.0265
     22 C         138.5359  138.9687  166.0886 C.ar    1  UNL1        0.1388
     23 C         138.9532  137.6862  165.4321 C.ar    1  UNL1        0.0384
     24 C         138.9649  137.5788  163.9360 C.ar    1  UNL1        0.0222
     25 C         138.5594  138.7538  163.0964 C.ar    1  UNL1        0.0812
     26 N         138.5711  138.6463  161.6003 N.ar    1  UNL1       -0.2439
     27 C         138.1655  139.8213  160.7608 C.ar    1  UNL1        0.0985
     28 C         137.7482  141.1039  161.4174 C.ar    1  UNL1        0.0164
     29 C         137.7365  141.2113  162.9135 C.ar    1  UNL1       -0.0191
     30 C         138.1421  140.0362  163.7530 C.ar    1  UNL1        0.0168
     31 C         138.1304  140.1437  165.2491 C.ar    1  UNL1        0.0381
     32 C         139.4747  140.0072  168.2772 C.3     1  UNL1        0.2525
     33 O         138.5242  139.0762  167.5847 O.3     1  UNL1       -0.4714
@<TRIPOS>BOND
     1    32    33    1
     2    33    22    1
     3    22    23   ar
     4    23    24   ar
     5    24    25   ar
     6    25    26   ar
     7    26    27   ar
     8    27    28   ar
     9    28    29   ar
    10    29    21    1
    11    21    20    1
    12     1    20    1
    13     1     2    1
    14     2     3    1
    15     3     4    1
    16     4     7    1
    17     7     9    1
    18     9    10    1
    19    10    11   ar
    20    11    12   ar
    21    12    13   ar
    22    13    14   ar
    23    14    15   ar
    24    14    16    1
    25    16    17    1
    26    17    18    1
    27    18    19    1
    28     4     5    1
    29     5     6    1
    30    29    30   ar
    31    30    31   ar
    32    31    22   ar
    33    30    25   ar
    34     6     1    1
    35    15    10   ar
    36    19    13    1
    37     7     8    1
