@<TRIPOS>MOLECULE
*****
 44 47 0 0 0
SMALL
GASTEIGER

@<TRIPOS>ATOM
      1 C         142.2922  144.2546  161.4938 C.3     1  UNL1        0.0781
      2 C         143.0269  144.7276  162.7130 C.3     1  UNL1        0.0372
      3 C         144.1720  143.9257  163.2568 C.3     1  UNL1        0.0738
      4 N         144.5824  142.6508  162.5814 N.3     1  UNL1       -0.2726
      5 C         143.8477  142.1778  161.3621 C.3     1  UNL1        0.0738
      6 C         142.7026  142.9797  160.8183 C.3     1  UNL1        0.0372
      7 N         141.1471  145.0565  160.9501 N.am    1  UNL1       -0.2808
      8 C         140.0807  145.5638  161.8750 C.2     1  UNL1        0.2300
      9 O         138.9356  146.3657  161.3312 O.2     1  UNL1       -0.2745
     10 C         140.2230  144.4921  158.5885 C.3     1  UNL1        0.0233
     11 C         141.0684  145.3511  159.4814 C.3     1  UNL1        0.0934
     12 C         140.1594  145.2692  163.3437 C.3     1  UNL1        0.1116
     13 C         139.7582  143.9193  163.8604 C.ar    1  UNL1       -0.0130
     14 C         139.0447  142.9538  162.9613 C.ar    1  UNL1       -0.0025
     15 C         138.6435  141.6040  163.4780 C.ar    1  UNL1        0.0180
     16 C         138.9559  141.2197  164.8939 C.ar    1  UNL1        0.1057
     17 C         139.6695  142.1853  165.7931 C.ar    1  UNL1        0.0180
     18 C         140.0706  143.5351  165.2763 C.ar    1  UNL1       -0.0025
     19 S         138.5548  139.8698  165.4107 S.O2    1  UNL1        0.0104
     20 C         138.1536  138.5200  165.9273 C.3     1  UNL1        0.1816
     21 O         138.0867  139.4838  164.0389 O.2     1  UNL1       -0.1686
     22 O         139.0228  140.2558  166.7825 O.2     1  UNL1       -0.1686
     23 C         145.7275  141.8489  163.1251 C.3     1  UNL1        0.0724
     24 C         145.4614  140.6489  163.9848 C.3     1  UNL1        0.0217
     25 C         144.0499  140.2314  164.2737 C.3     1  UNL1        0.0238
     26 C         143.2613  139.4863  163.2380 C.ar    1  UNL1       -0.0225
     27 C         141.7818  139.7042  163.1217 C.ar    1  UNL1       -0.0043
     28 C         140.9931  138.9589  162.0859 C.ar    1  UNL1       -0.0003
     29 C         141.6840  137.9959  161.1666 C.ar    1  UNL1       -0.0000
     30 C         143.1635  137.7780  161.2830 C.ar    1  UNL1       -0.0003
     31 C         143.9522  138.5231  162.3187 C.ar    1  UNL1       -0.0043
     32 C         143.4271  140.5591  165.5983 C.3     1  UNL1        0.0070
     33 C         142.8417  139.4663  166.4428 C.3     1  UNL1        0.0195
     34 C         142.2189  139.7940  167.7674 C.3     1  UNL1        0.0957
     35 N         142.1815  141.2145  168.2477 N.3     1  UNL1       -0.1521
     36 C         142.7668  142.3074  167.4033 C.3     1  UNL1        0.0957
     37 C         143.3897  141.9797  166.0786 C.3     1  UNL1        0.0195
     38 S         141.5586  141.5422  169.5723 S.O2    1  UNL1        0.1302
     39 O         142.2306  142.8832  169.5565 O.2     1  UNL1       -0.1495
     40 O         140.8867  140.2012  169.5881 O.2     1  UNL1       -0.1495
     41 C         140.9358  141.8699  170.8970 C.3     1  UNL1        0.5359
     42 F         142.2845  142.2387  171.4399 F       1  UNL1       -0.1493
     43 F         139.5870  141.5011  170.3541 F       1  UNL1       -0.1493
     44 F         140.3130  142.1976  172.2216 F       1  UNL1       -0.1493
@<TRIPOS>BOND
     1    10    11    1
     2    11     7    1
     3     7     8   am
     4     8     9    2
     5     8    12    1
     6    12    13    1
     7    13    14   ar
     8    14    15   ar
     9    15    16   ar
    10    16    19    1
    11    19    20    1
    12    19    21    2
    13    19    22    2
    14    16    17   ar
    15    17    18   ar
    16     7     1    1
    17     1     2    1
    18     2     3    1
    19     3     4    1
    20     4    23    1
    21    23    24    1
    22    25    24    1
    23    25    26    1
    24    26    27   ar
    25    27    28   ar
    26    28    29   ar
    27    29    30   ar
    28    30    31   ar
    29    25    32    1
    30    32    33    1
    31    33    34    1
    32    34    35    1
    33    35    38    1
    34    38    39    2
    35    38    40    2
    36    38    41    1
    37    41    42    1
    38    41    43    1
    39    41    44    1
    40    35    36    1
    41    36    37    1
    42     4     5    1
    43     5     6    1
    44    18    13   ar
    45     6     1    1
    46    31    26   ar
    47    37    32    1
@<TRIPOS>MOLECULE
*****
 44 47 0 0 0
SMALL
GASTEIGER

@<TRIPOS>ATOM
      1 C         142.4238  140.3569  167.7770 C.3     1  UNL1        0.0781
      2 C         142.6943  141.8289  167.6774 C.3     1  UNL1        0.0372
      3 C         143.2961  142.3980  166.4268 C.3     1  UNL1        0.0738
      4 N         143.6273  141.4951  165.2757 N.3     1  UNL1       -0.2726
      5 C         143.3567  140.0230  165.3752 C.3     1  UNL1        0.0738
      6 C         142.7550  139.4539  166.6258 C.3     1  UNL1        0.0372
      7 N         141.8220  139.7878  169.0276 N.am    1  UNL1       -0.2808
      8 C         140.3656  139.9954  169.3208 C.2     1  UNL1        0.2300
      9 O         139.7639  139.4263  170.5715 O.2     1  UNL1       -0.2745
     10 C         143.4673  139.7301  171.0374 C.3     1  UNL1        0.0233
     11 C         142.6766  139.0111  169.9849 C.3     1  UNL1        0.0934
     12 C         139.5111  140.7720  168.3635 C.3     1  UNL1        0.1116
     13 C         139.2678  140.2471  166.9796 C.ar    1  UNL1       -0.0130
     14 C         138.8049  138.8338  166.7841 C.ar    1  UNL1       -0.0025
     15 C         138.5616  138.3089  165.4002 C.ar    1  UNL1        0.0180
     16 C         138.7814  139.1972  164.2117 C.ar    1  UNL1        0.1057
     17 C         139.2443  140.6105  164.4072 C.ar    1  UNL1        0.0180
     18 C         139.4876  141.1354  165.7911 C.ar    1  UNL1       -0.0025
     19 S         138.5381  138.6722  162.8278 S.O2    1  UNL1        0.0104
     20 C         138.2949  138.1473  161.4439 C.3     1  UNL1        0.1816
     21 O         137.7025  139.8785  162.5171 O.2     1  UNL1       -0.1686
     22 O         139.3737  137.4659  163.1384 O.2     1  UNL1       -0.1686
     23 C         144.2290  142.0642  164.0251 C.3     1  UNL1        0.0724
     24 C         143.4662  143.0717  163.2170 C.3     1  UNL1        0.0217
     25 C         142.1862  142.6776  162.5417 C.3     1  UNL1        0.0238
     26 C         140.8920  143.3101  162.9598 C.ar    1  UNL1       -0.0225
     27 C         140.8196  144.0982  164.2341 C.ar    1  UNL1       -0.0043
     28 C         139.5253  144.7308  164.6522 C.ar    1  UNL1       -0.0003
     29 C         138.3035  144.5752  163.7961 C.ar    1  UNL1       -0.0000
     30 C         138.3759  143.7871  162.5218 C.ar    1  UNL1       -0.0003
     31 C         139.6701  143.1546  162.1037 C.ar    1  UNL1       -0.0043
     32 C         142.2003  141.6508  161.4483 C.3     1  UNL1        0.0070
     33 C         142.5643  142.0503  160.0490 C.3     1  UNL1        0.0195
     34 C         142.5784  141.0236  158.9556 C.3     1  UNL1        0.0957
     35 N         142.2285  139.5974  159.2613 N.3     1  UNL1       -0.1521
     36 C         141.8645  139.1979  160.6606 C.3     1  UNL1        0.0957
     37 C         141.8504  140.2246  161.7541 C.3     1  UNL1        0.0195
     38 S         142.2427  138.5707  158.1679 S.O2    1  UNL1        0.1302
     39 O         143.6454  138.9668  157.8141 O.2     1  UNL1       -0.1495
     40 O         140.8399  138.1746  158.5217 O.2     1  UNL1       -0.1495
     41 C         142.2567  137.5439  157.0744 C.3     1  UNL1        0.5359
     42 F         142.9107  136.5641  158.0030 F       1  UNL1       -0.1493
     43 F         141.6028  138.5238  156.1459 F       1  UNL1       -0.1493
     44 F         142.2708  136.5172  155.9811 F       1  UNL1       -0.1493
@<TRIPOS>BOND
     1    10    11    1
     2    11     7    1
     3     7     8   am
     4     8     9    2
     5     8    12    1
     6    12    13    1
     7    13    14   ar
     8    14    15   ar
     9    15    16   ar
    10    16    19    1
    11    19    20    1
    12    19    21    2
    13    19    22    2
    14    16    17   ar
    15    17    18   ar
    16     7     1    1
    17     1     2    1
    18     2     3    1
    19     3     4    1
    20     4    23    1
    21    23    24    1
    22    25    24    1
    23    25    26    1
    24    26    27   ar
    25    27    28   ar
    26    28    29   ar
    27    29    30   ar
    28    30    31   ar
    29    25    32    1
    30    32    33    1
    31    33    34    1
    32    34    35    1
    33    35    38    1
    34    38    39    2
    35    38    40    2
    36    38    41    1
    37    41    42    1
    38    41    43    1
    39    41    44    1
    40    35    36    1
    41    36    37    1
    42     4     5    1
    43     5     6    1
    44    18    13   ar
    45     6     1    1
    46    31    26   ar
    47    37    32    1
@<TRIPOS>MOLECULE
*****
 44 47 0 0 0
SMALL
GASTEIGER

@<TRIPOS>ATOM
      1 C         139.0909  138.9190  165.1470 C.3     1  UNL1        0.0781
      2 C         140.0594  137.8552  164.7225 C.3     1  UNL1        0.0372
      3 C         140.4235  137.7069  163.2749 C.3     1  UNL1        0.0738
      4 N         139.8190  138.6222  162.2519 N.3     1  UNL1       -0.2726
      5 C         138.8504  139.6861  162.6764 C.3     1  UNL1        0.0738
      6 C         138.4863  139.8344  164.1240 C.3     1  UNL1        0.0372
      7 N         138.7268  139.0674  166.5946 N.am    1  UNL1       -0.2808
      8 C         139.5869  139.8949  167.5033 C.2     1  UNL1        0.2300
      9 O         139.2229  140.0433  168.9508 O.2     1  UNL1       -0.2745
     10 C         137.3160  136.9129  166.9375 C.3     1  UNL1        0.0233
     11 C         137.5028  138.3883  167.1336 C.3     1  UNL1        0.0934
     12 C         140.8110  140.5740  166.9643 C.3     1  UNL1        0.1116
     13 C         140.6736  141.6932  165.9751 C.ar    1  UNL1       -0.0130
     14 C         139.6275  142.7489  166.1776 C.ar    1  UNL1       -0.0025
     15 C         139.4901  143.8681  165.1884 C.ar    1  UNL1        0.0180
     16 C         140.3989  143.9315  163.9967 C.ar    1  UNL1        0.1057
     17 C         141.4450  142.8758  163.7942 C.ar    1  UNL1        0.0180
     18 C         141.5824  141.7566  164.7834 C.ar    1  UNL1       -0.0025
     19 S         140.2615  145.0508  163.0074 S.O2    1  UNL1        0.0104
     20 C         140.1242  146.1699  162.0183 C.3     1  UNL1        0.1816
     21 O         141.6917  145.4358  163.2445 O.2     1  UNL1       -0.1686
     22 O         138.8313  144.6657  162.7704 O.2     1  UNL1       -0.1686
     23 C         140.1830  138.4739  160.8043 C.3     1  UNL1        0.0724
     24 C         141.5780  138.7811  160.3465 C.3     1  UNL1        0.0217
     25 C         142.1794  140.1268  160.6246 C.3     1  UNL1        0.0238
     26 C         143.2204  140.2766  161.6940 C.ar    1  UNL1       -0.0225
     27 C         144.1011  141.4906  161.7186 C.ar    1  UNL1       -0.0043
     28 C         145.1422  141.6403  162.7881 C.ar    1  UNL1       -0.0003
     29 C         145.3025  140.5762  163.8330 C.ar    1  UNL1       -0.0000
     30 C         144.4217  139.3622  163.8085 C.ar    1  UNL1       -0.0003
     31 C         143.3807  139.2125  162.7390 C.ar    1  UNL1       -0.0043
     32 C         141.7397  141.3228  159.8332 C.3     1  UNL1        0.0070
     33 C         142.4206  141.6576  158.5392 C.3     1  UNL1        0.0195
     34 C         141.9809  142.8535  157.7478 C.3     1  UNL1        0.0957
     35 N         140.8604  143.7148  158.2504 N.3     1  UNL1       -0.1521
     36 C         140.1795  143.3801  159.5443 C.3     1  UNL1        0.0957
     37 C         140.6191  142.1841  160.3358 C.3     1  UNL1        0.0195
     38 S         140.4207  144.9107  157.4590 S.O2    1  UNL1        0.1302
     39 O         139.4051  144.0667  156.7477 O.2     1  UNL1       -0.1495
     40 O         141.4364  145.7548  158.1703 O.2     1  UNL1       -0.1495
     41 C         139.9811  146.1068  156.6676 C.3     1  UNL1        0.5359
     42 F         140.3308  145.3934  155.3953 F       1  UNL1       -0.1493
     43 F         139.6313  146.8201  157.9399 F       1  UNL1       -0.1493
     44 F         139.5414  147.3027  155.8762 F       1  UNL1       -0.1493
@<TRIPOS>BOND
     1    10    11    1
     2    11     7    1
     3     7     8   am
     4     8     9    2
     5     8    12    1
     6    12    13    1
     7    13    14   ar
     8    14    15   ar
     9    15    16   ar
    10    16    19    1
    11    19    20    1
    12    19    21    2
    13    19    22    2
    14    16    17   ar
    15    17    18   ar
    16     7     1    1
    17     1     2    1
    18     2     3    1
    19     3     4    1
    20     4    23    1
    21    23    24    1
    22    25    24    1
    23    25    26    1
    24    26    27   ar
    25    27    28   ar
    26    28    29   ar
    27    29    30   ar
    28    30    31   ar
    29    25    32    1
    30    32    33    1
    31    33    34    1
    32    34    35    1
    33    35    38    1
    34    38    39    2
    35    38    40    2
    36    38    41    1
    37    41    42    1
    38    41    43    1
    39    41    44    1
    40    35    36    1
    41    36    37    1
    42     4     5    1
    43     5     6    1
    44    18    13   ar
    45     6     1    1
    46    31    26   ar
    47    37    32    1
@<TRIPOS>MOLECULE
*****
 44 47 0 0 0
SMALL
GASTEIGER

@<TRIPOS>ATOM
      1 C         141.2031  139.6051  166.7741 C.3     1  UNL1        0.0781
      2 C         139.7043  139.5536  166.8001 C.3     1  UNL1        0.0372
      3 C         138.9593  138.8421  165.7098 C.3     1  UNL1        0.0738
      4 N         139.7132  138.1821  164.5936 N.3     1  UNL1       -0.2726
      5 C         141.2121  138.2336  164.5676 C.3     1  UNL1        0.0738
      6 C         141.9571  138.9451  165.6579 C.3     1  UNL1        0.0372
      7 N         141.9481  140.3167  167.8644 N.am    1  UNL1       -0.2808
      8 C         142.1099  141.8071  167.8131 C.2     1  UNL1        0.2300
      9 O         142.8549  142.5186  168.9033 O.2     1  UNL1       -0.2745
     10 C         141.7435  139.3552  170.2693 C.3     1  UNL1        0.0233
     11 C         142.5313  139.5379  169.0060 C.3     1  UNL1        0.0934
     12 C         141.5267  142.5859  166.6715 C.3     1  UNL1        0.1116
     13 C         142.2243  142.6064  165.3436 C.ar    1  UNL1       -0.0130
     14 C         141.4568  142.3133  164.0887 C.ar    1  UNL1       -0.0025
     15 C         142.1544  142.3338  162.7609 C.ar    1  UNL1        0.0180
     16 C         143.6194  142.6475  162.6881 C.ar    1  UNL1        0.1057
     17 C         144.3869  142.9406  163.9431 C.ar    1  UNL1        0.0180
     18 C         143.6893  142.9201  165.2709 C.ar    1  UNL1       -0.0025
     19 S         144.3170  142.6680  161.3603 S.O2    1  UNL1        0.0104
     20 C         145.0144  142.6886  160.0325 C.3     1  UNL1        0.1816
     21 O         143.3338  143.6842  160.8596 O.2     1  UNL1       -0.1686
     22 O         145.3001  141.6518  161.8610 O.2     1  UNL1       -0.1686
     23 C         138.9682  137.4706  163.5033 C.3     1  UNL1        0.0724
     24 C         138.1998  138.2572  162.4832 C.3     1  UNL1        0.0217
     25 C         138.8895  139.3203  161.6806 C.3     1  UNL1        0.0238
     26 C         138.6372  140.7682  161.9800 C.ar    1  UNL1       -0.0225
     27 C         139.0597  141.8216  160.9993 C.ar    1  UNL1       -0.0043
     28 C         138.8075  143.2696  161.2988 C.ar    1  UNL1       -0.0003
     29 C         138.1327  143.6642  162.5790 C.ar    1  UNL1       -0.0000
     30 C         137.7102  142.6109  163.5597 C.ar    1  UNL1       -0.0003
     31 C         137.9624  141.1629  163.2603 C.ar    1  UNL1       -0.0043
     32 C         139.8315  138.9354  160.5786 C.3     1  UNL1        0.0070
     33 C         141.2912  138.7500  160.8702 C.3     1  UNL1        0.0195
     34 C         142.2332  138.3651  159.7681 C.3     1  UNL1        0.0957
     35 N         141.7155  138.1656  158.3745 N.3     1  UNL1       -0.1521
     36 C         140.2559  138.3510  158.0829 C.3     1  UNL1        0.0957
     37 C         139.3138  138.7359  159.1849 C.3     1  UNL1        0.0195
     38 S         142.6575  137.7807  157.2725 S.O2    1  UNL1        0.1302
     39 O         143.6427  138.8024  157.7578 O.2     1  UNL1       -0.1495
     40 O         141.6723  136.7591  156.7872 O.2     1  UNL1       -0.1495
     41 C         143.5995  137.3958  156.1704 C.3     1  UNL1        0.5359
     42 F         143.6524  135.9952  156.7048 F       1  UNL1       -0.1493
     43 F         143.5467  138.7963  155.6360 F       1  UNL1       -0.1493
     44 F         144.5415  137.0108  155.0684 F       1  UNL1       -0.1493
@<TRIPOS>BOND
     1    10    11    1
     2    11     7    1
     3     7     8   am
     4     8     9    2
     5     8    12    1
     6    12    13    1
     7    13    14   ar
     8    14    15   ar
     9    15    16   ar
    10    16    19    1
    11    19    20    1
    12    19    21    2
    13    19    22    2
    14    16    17   ar
    15    17    18   ar
    16     7     1    1
    17     1     2    1
    18     2     3    1
    19     3     4    1
    20     4    23    1
    21    23    24    1
    22    25    24    1
    23    25    26    1
    24    26    27   ar
    25    27    28   ar
    26    28    29   ar
    27    29    30   ar
    28    30    31   ar
    29    25    32    1
    30    32    33    1
    31    33    34    1
    32    34    35    1
    33    35    38    1
    34    38    39    2
    35    38    40    2
    36    38    41    1
    37    41    42    1
    38    41    43    1
    39    41    44    1
    40    35    36    1
    41    36    37    1
    42     4     5    1
    43     5     6    1
    44    18    13   ar
    45     6     1    1
    46    31    26   ar
    47    37    32    1
@<TRIPOS>MOLECULE
*****
 44 47 0 0 0
SMALL
GASTEIGER

@<TRIPOS>ATOM
      1 C         142.7175  141.0659  166.6482 C.3     1  UNL1        0.0781
      2 C         142.8647  140.0450  165.5591 C.3     1  UNL1        0.0372
      3 C         143.6771  140.3623  164.3387 C.3     1  UNL1        0.0738
      4 N         144.3421  141.7003  164.2073 N.3     1  UNL1       -0.2726
      5 C         144.1948  142.7212  165.2964 C.3     1  UNL1        0.0738
      6 C         143.3825  142.4040  166.5169 C.3     1  UNL1        0.0372
      7 N         141.9051  140.7487  167.8687 N.am    1  UNL1       -0.2808
      8 C         140.5600  141.3842  168.0603 C.2     1  UNL1        0.2300
      9 O         139.7476  141.0670  169.2808 O.2     1  UNL1       -0.2745
     10 C         142.9889  140.3197  170.1905 C.3     1  UNL1        0.0233
     11 C         142.4379  139.7960  168.8975 C.3     1  UNL1        0.0934
     12 C         140.0272  142.3369  167.0315 C.3     1  UNL1        0.1116
     13 C         139.4964  141.8147  165.7293 C.ar    1  UNL1       -0.0130
     14 C         139.5653  142.6657  164.4960 C.ar    1  UNL1       -0.0025
     15 C         139.0346  142.1436  163.1939 C.ar    1  UNL1        0.0180
     16 C         138.4349  140.7704  163.1250 C.ar    1  UNL1        0.1057
     17 C         138.3660  139.9194  164.3583 C.ar    1  UNL1        0.0180
     18 C         138.8967  140.4416  165.6604 C.ar    1  UNL1       -0.0025
     19 S         137.9041  140.2482  161.8228 S.O2    1  UNL1        0.0104
     20 C         137.3734  139.7261  160.5206 C.3     1  UNL1        0.1816
     21 O         137.6837  141.6542  161.3490 O.2     1  UNL1       -0.1686
     22 O         138.1246  138.8422  162.2967 O.2     1  UNL1       -0.1686
     23 C         145.1544  142.0175  162.9869 C.3     1  UNL1        0.0724
     24 C         144.6677  143.0446  162.0080 C.3     1  UNL1        0.0217
     25 C         143.3050  142.9104  161.3956 C.3     1  UNL1        0.0238
     26 C         142.2600  143.9547  161.6550 C.ar    1  UNL1       -0.0225
     27 C         142.1864  144.6256  162.9945 C.ar    1  UNL1       -0.0043
     28 C         141.1413  145.6700  163.2539 C.ar    1  UNL1       -0.0003
     29 C         140.1699  146.0433  162.1737 C.ar    1  UNL1       -0.0000
     30 C         140.2435  145.3724  160.8341 C.ar    1  UNL1       -0.0003
     31 C         141.2885  144.3281  160.5747 C.ar    1  UNL1       -0.0043
     32 C         142.9873  141.7319  160.5237 C.3     1  UNL1        0.0070
     33 C         143.7865  141.4827  159.2790 C.3     1  UNL1        0.0195
     34 C         143.4689  140.3042  158.4071 C.3     1  UNL1        0.0957
     35 N         142.3520  139.3749  158.7799 N.3     1  UNL1       -0.1521
     36 C         141.5529  139.6240  160.0245 C.3     1  UNL1        0.0957
     37 C         141.8705  140.8025  160.8965 C.3     1  UNL1        0.0195
     38 S         142.0344  138.1964  157.9080 S.O2    1  UNL1        0.1302
     39 O         140.6248  138.1970  158.4208 O.2     1  UNL1       -0.1495
     40 O         143.4440  138.1958  157.3952 O.2     1  UNL1       -0.1495
     41 C         141.7167  137.0178  157.0361 C.3     1  UNL1        0.5359
     42 F         140.2510  137.2865  157.2069 F       1  UNL1       -0.1493
     43 F         143.1825  136.7491  156.8652 F       1  UNL1       -0.1493
     44 F         141.3991  135.8393  156.1642 F       1  UNL1       -0.1493
@<TRIPOS>BOND
     1    10    11    1
     2    11     7    1
     3     7     8   am
     4     8     9    2
     5     8    12    1
     6    12    13    1
     7    13    14   ar
     8    14    15   ar
     9    15    16   ar
    10    16    19    1
    11    19    20    1
    12    19    21    2
    13    19    22    2
    14    16    17   ar
    15    17    18   ar
    16     7     1    1
    17     1     2    1
    18     2     3    1
    19     3     4    1
    20     4    23    1
    21    23    24    1
    22    25    24    1
    23    25    26    1
    24    26    27   ar
    25    27    28   ar
    26    28    29   ar
    27    29    30   ar
    28    30    31   ar
    29    25    32    1
    30    32    33    1
    31    33    34    1
    32    34    35    1
    33    35    38    1
    34    38    39    2
    35    38    40    2
    36    38    41    1
    37    41    42    1
    38    41    43    1
    39    41    44    1
    40    35    36    1
    41    36    37    1
    42     4     5    1
    43     5     6    1
    44    18    13   ar
    45     6     1    1
    46    31    26   ar
    47    37    32    1
@<TRIPOS>MOLECULE
*****
 44 47 0 0 0
SMALL
GASTEIGER

@<TRIPOS>ATOM
      1 C         140.9164  138.1696  161.1188 C.3     1  UNL1        0.0781
      2 C         139.4638  138.5057  161.2835 C.3     1  UNL1        0.0372
      3 C         138.7792  138.2520  162.5937 C.3     1  UNL1        0.0738
      4 N         139.5470  137.6622  163.7394 N.3     1  UNL1       -0.2726
      5 C         140.9996  137.3261  163.5747 C.3     1  UNL1        0.0738
      6 C         141.6843  137.5798  162.2644 C.3     1  UNL1        0.0372
      7 N         141.6010  138.4234  159.8085 N.am    1  UNL1       -0.2808
      8 C         143.0565  138.7854  159.7805 C.2     1  UNL1        0.2300
      9 O         143.7411  139.0391  158.4703 O.2     1  UNL1       -0.2745
     10 C         140.3216  139.5536  157.8501 C.3     1  UNL1        0.0233
     11 C         140.8304  138.3150  158.5262 C.3     1  UNL1        0.0934
     12 C         143.8271  138.8937  161.0628 C.3     1  UNL1        0.1116
     13 C         143.8948  140.2046  161.7888 C.ar    1  UNL1       -0.0130
     14 C         144.2617  140.2387  163.2428 C.ar    1  UNL1       -0.0025
     15 C         144.3293  141.5495  163.9687 C.ar    1  UNL1        0.0180
     16 C         144.0300  142.8264  163.2407 C.ar    1  UNL1        0.1057
     17 C         143.6630  142.7923  161.7867 C.ar    1  UNL1        0.0180
     18 C         143.5954  141.4815  161.0607 C.ar    1  UNL1       -0.0025
     19 S         144.0976  144.1373  163.9667 S.O2    1  UNL1        0.0104
     20 C         144.1652  145.4482  164.6926 C.3     1  UNL1        0.1816
     21 O         144.1660  144.8605  162.6543 O.2     1  UNL1       -0.1686
     22 O         144.0292  143.4141  165.2790 O.2     1  UNL1       -0.1686
     23 C         138.8623  137.4084  165.0496 C.3     1  UNL1        0.0724
     24 C         138.3718  138.5608  165.8751 C.3     1  UNL1        0.0217
     25 C         139.2627  139.7432  166.1167 C.3     1  UNL1        0.0238
     26 C         140.0751  139.8255  167.3749 C.ar    1  UNL1       -0.0225
     27 C         141.5534  139.5752  167.3308 C.ar    1  UNL1       -0.0043
     28 C         142.3658  139.6576  168.5891 C.ar    1  UNL1       -0.0003
     29 C         141.7000  139.9901  169.8914 C.ar    1  UNL1       -0.0000
     30 C         140.2216  140.2404  169.9354 C.ar    1  UNL1       -0.0003
     31 C         139.4092  140.1581  168.6772 C.ar    1  UNL1       -0.0043
     32 C         139.3410  140.8433  165.1000 C.3     1  UNL1        0.0070
     33 C         140.6626  141.2105  164.4926 C.3     1  UNL1        0.0195
     34 C         140.7409  142.3106  163.4760 C.3     1  UNL1        0.0957
     35 N         139.4979  143.0436  163.0667 N.3     1  UNL1       -0.1521
     36 C         138.1764  142.6765  163.6741 C.3     1  UNL1        0.0957
     37 C         138.0980  141.5763  164.6908 C.3     1  UNL1        0.0195
     38 S         139.5763  144.1437  162.0501 S.O2    1  UNL1        0.1302
     39 O         140.7247  144.7532  162.7982 O.2     1  UNL1       -0.1495
     40 O         138.4279  143.5342  161.3020 O.2     1  UNL1       -0.1495
     41 C         139.6546  145.2438  161.0334 C.3     1  UNL1        0.5359
     42 F         139.6758  144.2250  159.9327 F       1  UNL1       -0.1493
     43 F         139.6335  146.2626  162.1341 F       1  UNL1       -0.1493
     44 F         139.7330  146.3439  160.0167 F       1  UNL1       -0.1493
@<TRIPOS>BOND
     1    10    11    1
     2    11     7    1
     3     7     8   am
     4     8     9    2
     5     8    12    1
     6    12    13    1
     7    13    14   ar
     8    14    15   ar
     9    15    16   ar
    10    16    19    1
    11    19    20    1
    12    19    21    2
    13    19    22    2
    14    16    17   ar
    15    17    18   ar
    16     7     1    1
    17     1     2    1
    18     2     3    1
    19     3     4    1
    20     4    23    1
    21    23    24    1
    22    25    24    1
    23    25    26    1
    24    26    27   ar
    25    27    28   ar
    26    28    29   ar
    27    29    30   ar
    28    30    31   ar
    29    25    32    1
    30    32    33    1
    31    33    34    1
    32    34    35    1
    33    35    38    1
    34    38    39    2
    35    38    40    2
    36    38    41    1
    37    41    42    1
    38    41    43    1
    39    41    44    1
    40    35    36    1
    41    36    37    1
    42     4     5    1
    43     5     6    1
    44    18    13   ar
    45     6     1    1
    46    31    26   ar
    47    37    32    1
@<TRIPOS>MOLECULE
*****
 44 47 0 0 0
SMALL
GASTEIGER

@<TRIPOS>ATOM
      1 C         142.7151  139.2015  159.5439 C.3     1  UNL1        0.0781
      2 C         142.9807  138.7623  160.9533 C.3     1  UNL1        0.0372
      3 C         143.7940  139.6291  161.8683 C.3     1  UNL1        0.0738
      4 N         144.3417  140.9350  161.3739 N.3     1  UNL1       -0.2726
      5 C         144.0761  141.3742  159.9644 C.3     1  UNL1        0.0738
      6 C         143.2628  140.5075  159.0494 C.3     1  UNL1        0.0372
      7 N         141.9017  138.3347  158.6289 N.am    1  UNL1       -0.2808
      8 C         140.4259  138.5657  158.4925 C.2     1  UNL1        0.2300
      9 O         139.6125  137.6989  157.5775 O.2     1  UNL1       -0.2745
     10 C         143.0248  137.4871  156.4449 C.3     1  UNL1        0.0233
     11 C         142.5642  137.2371  157.8503 C.3     1  UNL1        0.0934
     12 C         139.7634  139.6633  159.2711 C.3     1  UNL1        0.1116
     13 C         139.4219  139.4565  160.7170 C.ar    1  UNL1       -0.0130
     14 C         139.3448  138.0676  161.2782 C.ar    1  UNL1       -0.0025
     15 C         139.0034  137.8609  162.7241 C.ar    1  UNL1        0.0180
     16 C         138.7391  139.0431  163.6088 C.ar    1  UNL1        0.1057
     17 C         138.8162  140.4320  163.0476 C.ar    1  UNL1        0.0180
     18 C         139.1576  140.6387  161.6017 C.ar    1  UNL1       -0.0025
     19 S         138.3976  138.8363  165.0548 S.O2    1  UNL1        0.0104
     20 C         138.0562  138.6295  166.5006 C.3     1  UNL1        0.1816
     21 O         138.8083  137.3977  164.9460 O.2     1  UNL1       -0.1686
     22 O         137.9870  140.2748  165.1636 O.2     1  UNL1       -0.1686
     23 C         145.1550  141.8018  162.2889 C.3     1  UNL1        0.0724
     24 C         144.6323  143.1421  162.7134 C.3     1  UNL1        0.0217
     25 C         143.2337  143.2691  163.2404 C.3     1  UNL1        0.0238
     26 C         142.2261  144.0987  162.5012 C.ar    1  UNL1       -0.0225
     27 C         142.1394  144.0172  161.0060 C.ar    1  UNL1       -0.0043
     28 C         141.1317  144.8470  160.2668 C.ar    1  UNL1       -0.0003
     29 C         140.2109  145.7582  161.0229 C.ar    1  UNL1       -0.0000
     30 C         140.2977  145.8397  162.5182 C.ar    1  UNL1       -0.0003
     31 C         141.3052  145.0100  163.2574 C.ar    1  UNL1       -0.0043
     32 C         142.8426  142.5664  164.5066 C.3     1  UNL1        0.0070
     33 C         143.4447  142.9870  165.8145 C.3     1  UNL1        0.0195
     34 C         143.0537  142.2843  167.0807 C.3     1  UNL1        0.0957
     35 N         142.0605  141.1610  167.0390 N.3     1  UNL1       -0.1521
     36 C         141.4584  140.7403  165.7312 C.3     1  UNL1        0.0957
     37 C         141.8495  141.4430  164.4649 C.3     1  UNL1        0.0195
     38 S         141.6695  140.4583  168.3052 S.O2    1  UNL1        0.1302
     39 O         143.1082  140.1208  168.5622 O.2     1  UNL1       -0.1495
     40 O         140.2307  140.7957  168.0481 O.2     1  UNL1       -0.1495
     41 C         141.2783  139.7555  169.5714 C.3     1  UNL1        0.5359
     42 F         140.1330  140.7082  169.7463 F       1  UNL1       -0.1493
     43 F         142.4236  138.8029  169.3965 F       1  UNL1       -0.1493
     44 F         140.8872  139.0529  170.8376 F       1  UNL1       -0.1493
@<TRIPOS>BOND
     1    10    11    1
     2    11     7    1
     3     7     8   am
     4     8     9    2
     5     8    12    1
     6    12    13    1
     7    13    14   ar
     8    14    15   ar
     9    15    16   ar
    10    16    19    1
    11    19    20    1
    12    19    21    2
    13    19    22    2
    14    16    17   ar
    15    17    18   ar
    16     7     1    1
    17     1     2    1
    18     2     3    1
    19     3     4    1
    20     4    23    1
    21    23    24    1
    22    25    24    1
    23    25    26    1
    24    26    27   ar
    25    27    28   ar
    26    28    29   ar
    27    29    30   ar
    28    30    31   ar
    29    25    32    1
    30    32    33    1
    31    33    34    1
    32    34    35    1
    33    35    38    1
    34    38    39    2
    35    38    40    2
    36    38    41    1
    37    41    42    1
    38    41    43    1
    39    41    44    1
    40    35    36    1
    41    36    37    1
    42     4     5    1
    43     5     6    1
    44    18    13   ar
    45     6     1    1
    46    31    26   ar
    47    37    32    1
@<TRIPOS>MOLECULE
*****
 44 47 0 0 0
SMALL
GASTEIGER

@<TRIPOS>ATOM
      1 C         142.7208  140.6719  166.6259 C.3     1  UNL1        0.0781
      2 C         143.0265  139.2821  166.1516 C.3     1  UNL1        0.0372
      3 C         143.6431  139.0693  164.8008 C.3     1  UNL1        0.0738
      4 N         143.9538  140.2462  163.9243 N.3     1  UNL1       -0.2726
      5 C         143.6481  141.6361  164.3987 C.3     1  UNL1        0.0738
      6 C         143.0315  141.8489  165.7494 C.3     1  UNL1        0.0372
      7 N         142.1042  140.8847  167.9767 N.am    1  UNL1       -0.2808
      8 C         140.6121  140.9411  168.1196 C.2     1  UNL1        0.2300
      9 O         139.9955  141.1539  169.4703 O.2     1  UNL1       -0.2745
     10 C         143.5901  142.3743  169.5008 C.3     1  UNL1        0.0233
     11 C         142.9798  141.0411  169.1845 C.3     1  UNL1        0.0934
     12 C         139.7365  140.7847  166.9117 C.3     1  UNL1        0.1116
     13 C         139.6958  141.8634  165.8701 C.ar    1  UNL1       -0.0130
     14 C         139.5512  141.5020  164.4215 C.ar    1  UNL1       -0.0025
     15 C         139.5105  142.5807  163.3800 C.ar    1  UNL1        0.0180
     16 C         139.6144  144.0206  163.7871 C.ar    1  UNL1        0.1057
     17 C         139.7590  144.3820  165.2357 C.ar    1  UNL1        0.0180
     18 C         139.7997  143.3033  166.2772 C.ar    1  UNL1       -0.0025
     19 S         139.5737  145.0993  162.7455 S.O2    1  UNL1        0.0104
     20 C         139.5330  146.1779  161.7039 C.3     1  UNL1        0.1816
     21 O         141.0013  145.4458  163.0485 O.2     1  UNL1       -0.1686
     22 O         138.1461  144.7528  162.4424 O.2     1  UNL1       -0.1686
     23 C         144.5704  140.0334  162.5736 C.3     1  UNL1        0.0724
     24 C         143.7770  139.3791  161.4817 C.3     1  UNL1        0.0217
     25 C         142.3747  139.8308  161.1996 C.3     1  UNL1        0.0238
     26 C         141.2148  139.1030  161.8118 C.ar    1  UNL1       -0.0225
     27 C         139.8119  139.4707  161.4287 C.ar    1  UNL1       -0.0043
     28 C         138.6520  138.7428  162.0410 C.ar    1  UNL1       -0.0003
     29 C         138.8950  137.6474  163.0365 C.ar    1  UNL1       -0.0000
     30 C         140.2979  137.2797  163.4196 C.ar    1  UNL1       -0.0003
     31 C         141.4578  138.0075  162.8073 C.ar    1  UNL1       -0.0043
     32 C         142.1323  141.0103  160.3052 C.3     1  UNL1        0.0070
     33 C         141.9048  140.8041  158.8369 C.3     1  UNL1        0.0195
     34 C         141.6624  141.9836  157.9426 C.3     1  UNL1        0.0957
     35 N         141.6475  143.3694  158.5164 N.3     1  UNL1       -0.1521
     36 C         141.8751  143.5757  159.9846 C.3     1  UNL1        0.0957
     37 C         142.1175  142.3961  160.8790 C.3     1  UNL1        0.0195
     38 S         141.4052  144.5489  157.6220 S.O2    1  UNL1        0.1302
     39 O         140.5004  143.7136  156.7656 O.2     1  UNL1       -0.1495
     40 O         142.3099  145.3842  158.4785 O.2     1  UNL1       -0.1495
     41 C         141.1628  145.7285  156.7276 C.3     1  UNL1        0.5359
     42 F         139.7579  145.8306  157.2431 F       1  UNL1       -0.1493
     43 F         142.5677  145.6265  156.2122 F       1  UNL1       -0.1493
     44 F         140.9204  146.9081  155.8333 F       1  UNL1       -0.1493
@<TRIPOS>BOND
     1    10    11    1
     2    11     7    1
     3     7     8   am
     4     8     9    2
     5     8    12    1
     6    12    13    1
     7    13    14   ar
     8    14    15   ar
     9    15    16   ar
    10    16    19    1
    11    19    20    1
    12    19    21    2
    13    19    22    2
    14    16    17   ar
    15    17    18   ar
    16     7     1    1
    17     1     2    1
    18     2     3    1
    19     3     4    1
    20     4    23    1
    21    23    24    1
    22    25    24    1
    23    25    26    1
    24    26    27   ar
    25    27    28   ar
    26    28    29   ar
    27    29    30   ar
    28    30    31   ar
    29    25    32    1
    30    32    33    1
    31    33    34    1
    32    34    35    1
    33    35    38    1
    34    38    39    2
    35    38    40    2
    36    38    41    1
    37    41    42    1
    38    41    43    1
    39    41    44    1
    40    35    36    1
    41    36    37    1
    42     4     5    1
    43     5     6    1
    44    18    13   ar
    45     6     1    1
    46    31    26   ar
    47    37    32    1
@<TRIPOS>MOLECULE
*****
 44 47 0 0 0
SMALL
GASTEIGER

@<TRIPOS>ATOM
      1 C         141.1206  139.8142  166.2835 C.3     1  UNL1        0.0781
      2 C         141.7906  141.1562  166.2819 C.3     1  UNL1        0.0372
      3 C         143.1238  141.3281  165.6162 C.3     1  UNL1        0.0738
      4 N         143.7870  140.1579  164.9523 N.3     1  UNL1       -0.2726
      5 C         143.1170  138.8158  164.9539 C.3     1  UNL1        0.0738
      6 C         141.7838  138.6439  165.6195 C.3     1  UNL1        0.0372
      7 N         139.7874  139.6423  166.9492 N.am    1  UNL1       -0.2808
      8 C         138.6883  138.9017  166.2466 C.2     1  UNL1        0.2300
      9 O         137.3551  138.7298  166.9123 O.2     1  UNL1       -0.2745
     10 C         140.5261  139.9281  169.4235 C.3     1  UNL1        0.0233
     11 C         139.5533  140.2109  168.3173 C.3     1  UNL1        0.0934
     12 C         138.9223  138.3331  164.8785 C.3     1  UNL1        0.1116
     13 C         138.8518  139.2240  163.6738 C.ar    1  UNL1       -0.0130
     14 C         138.0251  140.4750  163.7135 C.ar    1  UNL1       -0.0025
     15 C         137.9546  141.3659  162.5089 C.ar    1  UNL1        0.0180
     16 C         138.7108  141.0058  161.2645 C.ar    1  UNL1        0.1057
     17 C         139.5375  139.7549  161.2247 C.ar    1  UNL1        0.0180
     18 C         139.6080  138.8640  162.4294 C.ar    1  UNL1       -0.0025
     19 S         138.6402  141.8968  160.0597 S.O2    1  UNL1        0.0104
     20 C         138.5697  142.7877  158.8551 C.3     1  UNL1        0.1816
     21 O         139.2942  140.8301  159.2326 O.2     1  UNL1       -0.1686
     22 O         137.9862  142.9636  160.8869 O.2     1  UNL1       -0.1686
     23 C         145.1201  140.3298  164.2866 C.3     1  UNL1        0.0724
     24 C         145.2371  141.1655  163.0465 C.3     1  UNL1        0.0217
     25 C         144.0104  141.5059  162.2531 C.3     1  UNL1        0.0238
     26 C         143.1699  142.6861  162.6410 C.ar    1  UNL1       -0.0225
     27 C         143.8230  143.9384  163.1461 C.ar    1  UNL1       -0.0043
     28 C         142.9824  145.1187  163.5340 C.ar    1  UNL1       -0.0003
     29 C         141.4887  145.0466  163.4168 C.ar    1  UNL1       -0.0000
     30 C         140.8356  143.7943  162.9117 C.ar    1  UNL1       -0.0003
     31 C         141.6762  142.6140  162.5238 C.ar    1  UNL1       -0.0043
     32 C         143.6244  140.6661  161.0717 C.3     1  UNL1        0.0070
     33 C         143.7009  141.2386  159.6873 C.3     1  UNL1        0.0195
     34 C         143.3148  140.3988  158.5060 C.3     1  UNL1        0.0957
     35 N         142.8522  138.9864  158.7089 N.3     1  UNL1       -0.1521
     36 C         142.7757  138.4139  160.0932 C.3     1  UNL1        0.0957
     37 C         143.1618  139.2537  161.2746 C.3     1  UNL1        0.0195
     38 S         142.4661  138.1466  157.5276 S.O2    1  UNL1        0.1302
     39 O         143.8410  138.3217  156.9539 O.2     1  UNL1       -0.1495
     40 O         141.0913  137.9716  158.1013 O.2     1  UNL1       -0.1495
     41 C         142.0800  137.3068  156.3462 C.3     1  UNL1        0.5359
     42 F         141.2694  138.4454  155.8018 F       1  UNL1       -0.1493
     43 F         142.8906  136.1682  156.8906 F       1  UNL1       -0.1493
     44 F         141.6939  136.4670  155.1649 F       1  UNL1       -0.1493
@<TRIPOS>BOND
     1    10    11    1
     2    11     7    1
     3     7     8   am
     4     8     9    2
     5     8    12    1
     6    12    13    1
     7    13    14   ar
     8    14    15   ar
     9    15    16   ar
    10    16    19    1
    11    19    20    1
    12    19    21    2
    13    19    22    2
    14    16    17   ar
    15    17    18   ar
    16     7     1    1
    17     1     2    1
    18     2     3    1
    19     3     4    1
    20     4    23    1
    21    23    24    1
    22    25    24    1
    23    25    26    1
    24    26    27   ar
    25    27    28   ar
    26    28    29   ar
    27    29    30   ar
    28    30    31   ar
    29    25    32    1
    30    32    33    1
    31    33    34    1
    32    34    35    1
    33    35    38    1
    34    38    39    2
    35    38    40    2
    36    38    41    1
    37    41    42    1
    38    41    43    1
    39    41    44    1
    40    35    36    1
    41    36    37    1
    42     4     5    1
    43     5     6    1
    44    18    13   ar
    45     6     1    1
    46    31    26   ar
    47    37    32    1
