@<TRIPOS>MOLECULE
*****
 50 54 0 0 0
SMALL
GASTEIGER

@<TRIPOS>ATOM
      1 C         140.5402  142.3617  158.9155 C.ar    1  UNL1        0.0389
      2 C         139.5682  142.4040  157.7738 C.ar    1  UNL1        0.1019
      3 N         139.3328  143.6888  157.0365 N.ar    1  UNL1       -0.2218
      4 C         140.0694  144.9315  157.4408 C.ar    1  UNL1        0.2349
      5 N         141.0414  144.8892  158.5825 N.ar    1  UNL1       -0.2260
      6 C         141.2768  143.6042  159.3199 C.ar    1  UNL1        0.0824
      7 C         141.6282  140.0057  159.0400 C.ar    1  UNL1        0.2249
      8 N         141.8636  138.7208  159.7773 N.ar    1  UNL1       -0.2101
      9 C         141.2463  138.5071  161.1276 C.ar    1  UNL1        0.1020
     10 C         140.3936  139.5782  161.7405 C.ar    1  UNL1        0.0191
     11 C         140.1583  140.8630  161.0032 C.ar    1  UNL1        0.0063
     12 C         140.7756  141.0768  159.6529 C.ar    1  UNL1        0.0559
     13 C         139.7763  139.3644  163.0908 C.ar    1  UNL1       -0.0025
     14 C         138.7567  140.3337  163.6113 C.ar    1  UNL1       -0.0002
     15 C         138.1394  140.1199  164.9616 C.ar    1  UNL1        0.0011
     16 C         138.5417  138.9370  165.7914 C.ar    1  UNL1        0.0137
     17 C         139.5613  137.9677  165.2709 C.ar    1  UNL1       -0.0031
     18 C         140.1786  138.1815  163.9206 C.ar    1  UNL1       -0.0218
     19 C         141.1983  137.2121  163.4002 C.3     1  UNL1        0.0310
     20 C         137.9244  138.7232  167.1416 C.2     1  UNL1        0.0729
     21 O         136.7405  137.8141  167.2897 O.co2   1  UNL1       -0.5446
     22 O         138.4910  139.4186  168.3439 O.co2   1  UNL1       -0.5446
     23 C         143.6387  140.7641  157.5797 C.3     1  UNL1        0.2542
     24 O         142.2455  140.2194  157.6897 O.3     1  UNL1       -0.4561
     25 C         139.8340  146.2163  156.7034 C.3     1  UNL1        0.4523
     26 F         139.5986  147.5011  155.9661 F       1  UNL1       -0.1632
     27 F         139.5741  146.9155  158.0048 F       1  UNL1       -0.1632
     28 F         140.0939  145.5171  155.4021 F       1  UNL1       -0.1632
     29 C         142.2487  143.5619  160.4616 C.3     1  UNL1        0.1427
     30 N         141.7454  143.4879  161.8727 N.am    1  UNL1       -0.2380
     31 C         140.7165  144.3881  162.4901 C.2     1  UNL1        0.4055
     32 O         140.0103  145.5202  161.8048 O.2     1  UNL1       -0.2262
     33 O         140.5178  143.9573  163.9131 O.3     1  UNL1       -0.4320
     34 C         141.4238  142.7909  164.1752 C.3     1  UNL1        0.2107
     35 C         142.1825  142.5008  162.9141 C.3     1  UNL1        0.1233
     36 C         143.1997  141.4144  162.7272 C.3     1  UNL1        0.0258
     37 C         141.5492  142.0455  165.4707 C.ar    1  UNL1        0.0189
     38 C         140.9081  142.5882  166.7134 C.ar    1  UNL1        0.0031
     39 C         141.0334  141.8428  168.0090 C.ar    1  UNL1        0.0712
     40 C         141.7999  140.5545  168.0619 C.ar    1  UNL1        0.0077
     41 C         142.4411  140.0116  166.8192 C.ar    1  UNL1        0.0712
     42 C         142.3157  140.7572  165.5236 C.ar    1  UNL1        0.0031
     43 C         140.3923  142.3856  169.2517 C.3     1  UNL1        0.4186
     44 F         139.7511  142.9284  170.4943 F       1  UNL1       -0.1659
     45 F         140.1089  143.6762  168.5417 F       1  UNL1       -0.1659
     46 F         140.6756  141.0949  169.9617 F       1  UNL1       -0.1659
     47 C         143.2076  138.7234  166.8721 C.3     1  UNL1        0.4186
     48 F         143.9741  137.4351  166.9251 F       1  UNL1       -0.1659
     49 F         142.9773  138.6472  168.3524 F       1  UNL1       -0.1659
     50 F         143.4379  138.7995  165.3919 F       1  UNL1       -0.1659
@<TRIPOS>UNITY_ATOM_ATTR
21 1
charge -1
@<TRIPOS>BOND
     1    23    24    1
     2    24     7    1
     3     7     8   ar
     4     8     9   ar
     5     9    10   ar
     6    10    13    1
     7    13    14   ar
     8    14    15   ar
     9    15    16   ar
    10    16    20    1
    11    20    21   ar
    12    20    22   ar
    13    16    17   ar
    14    17    18   ar
    15    18    19    1
    16    10    11   ar
    17    11    12   ar
    18    12     1    1
    19     1     2   ar
    20     2     3   ar
    21     3     4   ar
    22     4    25    1
    23    25    26    1
    24    25    27    1
    25    25    28    1
    26     4     5   ar
    27     5     6   ar
    28     6    29    1
    29    29    30    1
    30    30    31   am
    31    31    32    2
    32    31    33    1
    33    33    34    1
    34    34    37    1
    35    37    38   ar
    36    38    39   ar
    37    39    43    1
    38    43    44    1
    39    43    45    1
    40    43    46    1
    41    39    40   ar
    42    40    41   ar
    43    41    47    1
    44    47    48    1
    45    47    49    1
    46    47    50    1
    47    41    42   ar
    48    34    35    1
    49    35    36    1
    50    12     7   ar
    51     6     1   ar
    52    35    30    1
    53    18    13   ar
    54    42    37   ar
@<TRIPOS>MOLECULE
*****
 50 54 0 0 0
SMALL
GASTEIGER

@<TRIPOS>ATOM
      1 C         142.2858  142.7855  159.9619 C.ar    1  UNL1        0.0389
      2 C         141.9789  142.3263  158.5673 C.ar    1  UNL1        0.1019
      3 N         143.0969  142.0080  157.6194 N.ar    1  UNL1       -0.2218
      4 C         144.5220  142.1489  158.0660 C.ar    1  UNL1        0.2349
      5 N         144.8289  142.6081  159.4606 N.ar    1  UNL1       -0.2260
      6 C         143.7108  142.9264  160.4086 C.ar    1  UNL1        0.0824
      7 C         140.4949  144.4432  160.8534 C.ar    1  UNL1        0.2249
      8 N         139.3768  144.7614  161.8013 N.ar    1  UNL1       -0.2101
      9 C         138.9316  143.7402  162.8058 C.ar    1  UNL1        0.1020
     10 C         139.6043  142.4008  162.8622 C.ar    1  UNL1        0.0191
     11 C         140.7224  142.0825  161.9143 C.ar    1  UNL1        0.0063
     12 C         141.1677  143.1038  160.9099 C.ar    1  UNL1        0.0559
     13 C         139.1591  141.3795  163.8667 C.ar    1  UNL1       -0.0025
     14 C         139.5413  141.5301  165.3093 C.ar    1  UNL1       -0.0002
     15 C         139.0960  140.5089  166.3137 C.ar    1  UNL1        0.0011
     16 C         138.2685  139.3371  165.8755 C.ar    1  UNL1        0.0137
     17 C         137.8863  139.1865  164.4329 C.ar    1  UNL1       -0.0031
     18 C         138.3315  140.2078  163.4285 C.ar    1  UNL1       -0.0218
     19 C         137.9492  140.0571  161.9858 C.3     1  UNL1        0.0310
     20 C         137.8232  138.3159  166.8799 C.2     1  UNL1        0.0729
     21 O         137.5729  138.7221  168.3020 O.co2   1  UNL1       -0.5446
     22 O         137.6282  136.8885  166.4622 O.co2   1  UNL1       -0.5446
     23 C         140.2766  145.5341  158.5056 C.3     1  UNL1        0.2542
     24 O         140.9402  145.4644  159.8490 O.3     1  UNL1       -0.4561
     25 C         145.6400  141.8307  157.1181 C.3     1  UNL1        0.4523
     26 F         146.7581  141.5124  156.1701 F       1  UNL1       -0.1632
     27 F         144.8054  140.7504  156.4964 F       1  UNL1       -0.1632
     28 F         146.4746  142.9109  157.7397 F       1  UNL1       -0.1632
     29 C         144.0177  143.3856  161.8032 C.3     1  UNL1        0.1427
     30 N         143.8648  142.4377  162.9557 N.am    1  UNL1       -0.2380
     31 C         144.2811  140.9968  162.9732 C.2     1  UNL1        0.4055
     32 O         144.9234  140.2507  161.8414 O.2     1  UNL1       -0.2262
     33 O         143.9423  140.4328  164.3213 O.3     1  UNL1       -0.4320
     34 C         143.3166  141.5253  165.1368 C.3     1  UNL1        0.2107
     35 C         143.2687  142.7643  164.2928 C.3     1  UNL1        0.1233
     36 C         142.7210  144.0962  164.7123 C.3     1  UNL1        0.0258
     37 C         142.8252  141.4005  166.5484 C.ar    1  UNL1        0.0189
     38 C         143.0357  140.1230  167.3059 C.ar    1  UNL1        0.0031
     39 C         142.5442  139.9982  168.7175 C.ar    1  UNL1        0.0712
     40 C         141.8422  141.1510  169.3719 C.ar    1  UNL1        0.0077
     41 C         141.6317  142.4287  168.6145 C.ar    1  UNL1        0.0712
     42 C         142.1232  142.5533  167.2028 C.ar    1  UNL1        0.0031
     43 C         142.7548  138.7207  169.4748 C.3     1  UNL1        0.4186
     44 F         142.9653  137.4432  170.2321 F       1  UNL1       -0.1659
     45 F         142.1456  139.3440  170.6956 F       1  UNL1       -0.1659
     46 F         143.3640  138.0973  168.2539 F       1  UNL1       -0.1659
     47 C         140.9297  143.5815  169.2689 C.3     1  UNL1        0.4186
     48 F         140.2277  144.7342  169.9233 F       1  UNL1       -0.1659
     49 F         139.8924  143.5649  168.1855 F       1  UNL1       -0.1659
     50 F         141.9669  143.5980  170.3524 F       1  UNL1       -0.1659
@<TRIPOS>UNITY_ATOM_ATTR
21 1
charge -1
@<TRIPOS>BOND
     1    23    24    1
     2    24     7    1
     3     7     8   ar
     4     8     9   ar
     5     9    10   ar
     6    10    13    1
     7    13    14   ar
     8    14    15   ar
     9    15    16   ar
    10    16    20    1
    11    20    21   ar
    12    20    22   ar
    13    16    17   ar
    14    17    18   ar
    15    18    19    1
    16    10    11   ar
    17    11    12   ar
    18    12     1    1
    19     1     2   ar
    20     2     3   ar
    21     3     4   ar
    22     4    25    1
    23    25    26    1
    24    25    27    1
    25    25    28    1
    26     4     5   ar
    27     5     6   ar
    28     6    29    1
    29    29    30    1
    30    30    31   am
    31    31    32    2
    32    31    33    1
    33    33    34    1
    34    34    37    1
    35    37    38   ar
    36    38    39   ar
    37    39    43    1
    38    43    44    1
    39    43    45    1
    40    43    46    1
    41    39    40   ar
    42    40    41   ar
    43    41    47    1
    44    47    48    1
    45    47    49    1
    46    47    50    1
    47    41    42   ar
    48    34    35    1
    49    35    36    1
    50    12     7   ar
    51     6     1   ar
    52    35    30    1
    53    18    13   ar
    54    42    37   ar
@<TRIPOS>MOLECULE
*****
 50 54 0 0 0
SMALL
GASTEIGER

@<TRIPOS>ATOM
      1 C         140.4842  142.3201  158.8822 C.ar    1  UNL1        0.0389
      2 C         139.5216  142.3614  157.7325 C.ar    1  UNL1        0.1019
      3 N         139.2874  143.6471  156.9962 N.ar    1  UNL1       -0.2218
      4 C         140.0159  144.8916  157.4095 C.ar    1  UNL1        0.2349
      5 N         140.9785  144.8503  158.5591 N.ar    1  UNL1       -0.2260
      6 C         141.2127  143.5645  159.2954 C.ar    1  UNL1        0.0824
      7 C         141.5495  139.9531  158.9940 C.ar    1  UNL1        0.2249
      8 N         141.7836  138.6675  159.7303 N.ar    1  UNL1       -0.2101
      9 C         141.1866  138.4631  161.0911 C.ar    1  UNL1        0.1020
     10 C         140.3554  139.5443  161.7156 C.ar    1  UNL1        0.0191
     11 C         140.1213  140.8300  160.9793 C.ar    1  UNL1        0.0063
     12 C         140.7184  141.0344  159.6185 C.ar    1  UNL1        0.0559
     13 C         139.7584  139.3399  163.0764 C.ar    1  UNL1       -0.0025
     14 C         138.7211  140.2933  163.5912 C.ar    1  UNL1       -0.0002
     15 C         138.1241  140.0889  164.9520 C.ar    1  UNL1        0.0011
     16 C         138.5643  138.9311  165.7980 C.ar    1  UNL1        0.0137
     17 C         139.6016  137.9778  165.2832 C.ar    1  UNL1       -0.0031
     18 C         140.1986  138.1822  163.9224 C.ar    1  UNL1       -0.0218
     19 C         141.2360  137.2287  163.4075 C.3     1  UNL1        0.0310
     20 C         137.9673  138.7267  167.1588 C.2     1  UNL1        0.0729
     21 O         136.8204  137.7771  167.3397 O.co2   1  UNL1       -0.5446
     22 O         138.5171  139.4720  168.3387 O.co2   1  UNL1       -0.5446
     23 C         143.5247  140.7339  157.4977 C.3     1  UNL1        0.2542
     24 O         142.1466  140.1575  157.6332 O.3     1  UNL1       -0.4561
     25 C         139.7817  146.1772  156.6732 C.3     1  UNL1        0.4523
     26 F         139.5475  147.4629  155.9369 F       1  UNL1       -0.1632
     27 F         139.6554  146.9026  157.9800 F       1  UNL1       -0.1632
     28 F         139.9081  145.4518  155.3664 F       1  UNL1       -0.1632
     29 C         142.1753  143.5232  160.4451 C.3     1  UNL1        0.1427
     30 N         141.6608  143.4355  161.8514 N.am    1  UNL1       -0.2380
     31 C         140.5744  144.2812  162.4470 C.2     1  UNL1        0.4055
     32 O         139.8119  145.3630  161.7410 O.2     1  UNL1       -0.2262
     33 O         140.3845  143.8552  163.8727 O.3     1  UNL1       -0.4320
     34 C         141.3534  142.7462  164.1581 C.3     1  UNL1        0.2107
     35 C         142.1422  142.4869  162.9088 C.3     1  UNL1        0.1233
     36 C         143.2227  141.4594  162.7457 C.3     1  UNL1        0.0258
     37 C         141.5066  142.0235  165.4634 C.ar    1  UNL1        0.0189
     38 C         142.2868  140.7438  165.5253 C.ar    1  UNL1        0.0031
     39 C         142.4400  140.0211  166.8307 C.ar    1  UNL1        0.0712
     40 C         141.8131  140.5781  168.0744 C.ar    1  UNL1        0.0077
     41 C         141.0329  141.8578  168.0127 C.ar    1  UNL1        0.0712
     42 C         140.8798  142.5805  166.7072 C.ar    1  UNL1        0.0031
     43 C         143.2202  138.7415  166.8924 C.3     1  UNL1        0.4186
     44 F         144.0003  137.4618  166.9542 F       1  UNL1       -0.1659
     45 F         143.4951  138.8381  165.4210 F       1  UNL1       -0.1659
     46 F         142.9452  138.6448  168.3639 F       1  UNL1       -0.1659
     47 C         140.4060  142.4147  169.2564 C.3     1  UNL1        0.4186
     48 F         139.7791  142.9717  170.5001 F       1  UNL1       -0.1659
     49 F         140.1294  143.7032  168.5399 F       1  UNL1       -0.1659
     50 F         140.6827  141.1263  169.9728 F       1  UNL1       -0.1659
@<TRIPOS>UNITY_ATOM_ATTR
21 1
charge -1
@<TRIPOS>BOND
     1    23    24    1
     2    24     7    1
     3     7     8   ar
     4     8     9   ar
     5     9    10   ar
     6    10    13    1
     7    13    14   ar
     8    14    15   ar
     9    15    16   ar
    10    16    20    1
    11    20    21   ar
    12    20    22   ar
    13    16    17   ar
    14    17    18   ar
    15    18    19    1
    16    10    11   ar
    17    11    12   ar
    18    12     1    1
    19     1     2   ar
    20     2     3   ar
    21     3     4   ar
    22     4    25    1
    23    25    26    1
    24    25    27    1
    25    25    28    1
    26     4     5   ar
    27     5     6   ar
    28     6    29    1
    29    29    30    1
    30    30    31   am
    31    31    32    2
    32    31    33    1
    33    33    34    1
    34    34    37    1
    35    37    38   ar
    36    38    39   ar
    37    39    43    1
    38    43    44    1
    39    43    45    1
    40    43    46    1
    41    39    40   ar
    42    40    41   ar
    43    41    47    1
    44    47    48    1
    45    47    49    1
    46    47    50    1
    47    41    42   ar
    48    34    35    1
    49    35    36    1
    50    12     7   ar
    51     6     1   ar
    52    35    30    1
    53    18    13   ar
    54    42    37   ar
@<TRIPOS>MOLECULE
*****
 50 54 0 0 0
SMALL
GASTEIGER

@<TRIPOS>ATOM
      1 C         141.8358  142.8001  159.5600 C.ar    1  UNL1        0.0389
      2 C         142.8697  143.6006  158.8251 C.ar    1  UNL1        0.1019
      3 N         142.4500  144.7429  157.9482 N.ar    1  UNL1       -0.2218
      4 C         140.9964  145.0848  157.8062 C.ar    1  UNL1        0.2349
      5 N         139.9624  144.2842  158.5411 N.ar    1  UNL1       -0.2260
      6 C         140.3822  143.1419  159.4181 C.ar    1  UNL1        0.0824
      7 C         142.5559  140.3186  159.8316 C.ar    1  UNL1        0.2249
      8 N         142.9756  139.1763  160.7085 N.ar    1  UNL1       -0.2101
      9 C         143.0949  139.3732  162.1907 C.ar    1  UNL1        0.1020
     10 C         142.7944  140.7123  162.7961 C.ar    1  UNL1        0.0191
     11 C         142.3747  141.8545  161.9192 C.ar    1  UNL1        0.0063
     12 C         142.2555  141.6577  160.4369 C.ar    1  UNL1        0.0559
     13 C         142.9136  140.9091  164.2783 C.ar    1  UNL1       -0.0025
     14 C         143.4273  142.2087  164.8234 C.ar    1  UNL1       -0.0002
     15 C         143.5465  142.4055  166.3056 C.ar    1  UNL1        0.0011
     16 C         143.1521  141.3027  167.2428 C.ar    1  UNL1        0.0137
     17 C         142.6385  140.0032  166.6977 C.ar    1  UNL1       -0.0031
     18 C         142.5192  139.8063  165.2155 C.ar    1  UNL1       -0.0218
     19 C         142.0055  138.5066  164.6704 C.3     1  UNL1        0.0310
     20 C         143.2714  141.4996  168.7250 C.2     1  UNL1        0.0729
     21 O         143.4906  142.8742  169.2838 O.co2   1  UNL1       -0.5446
     22 O         143.1714  140.3218  169.6485 O.co2   1  UNL1       -0.5446
     23 C         143.6670  140.1230  157.4912 C.3     1  UNL1        0.2542
     24 O         142.4367  140.1218  158.3493 O.3     1  UNL1       -0.4561
     25 C         140.5767  146.2271  156.9293 C.3     1  UNL1        0.4523
     26 F         140.1571  147.3694  156.0525 F       1  UNL1       -0.1632
     27 F         141.4911  145.7328  155.8479 F       1  UNL1       -0.1632
     28 F         139.6624  146.7213  158.0108 F       1  UNL1       -0.1632
     29 C         139.3482  142.3413  160.1530 C.3     1  UNL1        0.1427
     30 N         139.2091  142.4809  161.6401 N.am    1  UNL1       -0.2380
     31 C         139.0225  143.7658  162.3913 C.2     1  UNL1        0.4055
     32 O         138.9424  145.1366  161.7875 O.2     1  UNL1       -0.2262
     33 O         138.9302  143.4392  163.8525 O.3     1  UNL1       -0.4320
     34 C         139.0597  141.9524  164.0041 C.3     1  UNL1        0.2107
     35 C         139.2321  141.3603  162.6368 C.3     1  UNL1        0.1233
     36 C         139.3982  139.9033  162.3215 C.3     1  UNL1        0.0258
     37 C         139.0233  141.1916  165.2962 C.ar    1  UNL1        0.0189
     38 C         139.5495  141.8206  166.5522 C.ar    1  UNL1        0.0031
     39 C         139.5131  141.0597  167.8443 C.ar    1  UNL1        0.0712
     40 C         138.9504  139.6697  167.8806 C.ar    1  UNL1        0.0077
     41 C         138.4241  139.0406  166.6246 C.ar    1  UNL1        0.0712
     42 C         138.4606  139.8016  165.3325 C.ar    1  UNL1        0.0031
     43 C         140.0393  141.6888  169.1002 C.3     1  UNL1        0.4186
     44 F         140.5655  142.3178  170.3561 F       1  UNL1       -0.1659
     45 F         140.2998  142.9630  168.3529 F       1  UNL1       -0.1659
     46 F         139.7789  140.4145  169.8477 F       1  UNL1       -0.1659
     47 C         137.8615  137.6506  166.6609 C.3     1  UNL1        0.4186
     48 F         137.2988  136.2606  166.6971 F       1  UNL1       -0.1659
     49 F         136.9106  138.0638  167.7449 F       1  UNL1       -0.1659
     50 F         138.8123  137.2374  165.5769 F       1  UNL1       -0.1659
@<TRIPOS>UNITY_ATOM_ATTR
21 1
charge -1
@<TRIPOS>BOND
     1    23    24    1
     2    24     7    1
     3     7     8   ar
     4     8     9   ar
     5     9    10   ar
     6    10    13    1
     7    13    14   ar
     8    14    15   ar
     9    15    16   ar
    10    16    20    1
    11    20    21   ar
    12    20    22   ar
    13    16    17   ar
    14    17    18   ar
    15    18    19    1
    16    10    11   ar
    17    11    12   ar
    18    12     1    1
    19     1     2   ar
    20     2     3   ar
    21     3     4   ar
    22     4    25    1
    23    25    26    1
    24    25    27    1
    25    25    28    1
    26     4     5   ar
    27     5     6   ar
    28     6    29    1
    29    29    30    1
    30    30    31   am
    31    31    32    2
    32    31    33    1
    33    33    34    1
    34    34    37    1
    35    37    38   ar
    36    38    39   ar
    37    39    43    1
    38    43    44    1
    39    43    45    1
    40    43    46    1
    41    39    40   ar
    42    40    41   ar
    43    41    47    1
    44    47    48    1
    45    47    49    1
    46    47    50    1
    47    41    42   ar
    48    34    35    1
    49    35    36    1
    50    12     7   ar
    51     6     1   ar
    52    35    30    1
    53    18    13   ar
    54    42    37   ar
@<TRIPOS>MOLECULE
*****
 50 54 0 0 0
SMALL
GASTEIGER

@<TRIPOS>ATOM
      1 C         140.8604  138.6601  158.2991 C.ar    1  UNL1        0.0389
      2 C         140.2820  137.6563  157.3463 C.ar    1  UNL1        0.1019
      3 N         141.1913  136.8016  156.5141 N.ar    1  UNL1       -0.2218
      4 C         142.6790  136.9506  156.6347 C.ar    1  UNL1        0.2349
      5 N         143.2574  137.9544  157.5876 N.ar    1  UNL1       -0.2260
      6 C         142.3480  138.8092  158.4198 C.ar    1  UNL1        0.0824
      7 C         139.2614  140.6963  158.5161 C.ar    1  UNL1        0.2249
      8 N         138.3520  141.5510  159.3483 N.ar    1  UNL1       -0.2101
      9 C         138.1323  141.2242  160.7957 C.ar    1  UNL1        0.1020
     10 C         138.8219  140.0427  161.4109 C.ar    1  UNL1        0.0191
     11 C         139.7312  139.1881  160.5787 C.ar    1  UNL1        0.0063
     12 C         139.9510  139.5149  159.1313 C.ar    1  UNL1        0.0559
     13 C         138.6022  139.7159  162.8583 C.ar    1  UNL1       -0.0025
     14 C         138.9974  138.3709  163.3919 C.ar    1  UNL1       -0.0002
     15 C         138.7776  138.0441  164.8392 C.ar    1  UNL1        0.0011
     16 C         138.1627  139.0624  165.7530 C.ar    1  UNL1        0.0137
     17 C         137.7676  140.4074  165.2195 C.ar    1  UNL1       -0.0031
     18 C         137.9873  140.7342  163.7721 C.ar    1  UNL1       -0.0218
     19 C         137.5921  142.0792  163.2385 C.3     1  UNL1        0.0310
     20 C         137.9430  138.7356  167.2004 C.2     1  UNL1        0.0729
     21 O         136.8919  137.7403  167.5934 O.co2   1  UNL1       -0.5446
     22 O         138.7744  139.4040  168.2548 O.co2   1  UNL1       -0.5446
     23 C         138.3242  141.0149  156.1140 C.3     1  UNL1        0.2542
     24 O         139.4811  141.0231  157.0687 O.3     1  UNL1       -0.4561
     25 C         143.5883  136.0959  155.8026 C.3     1  UNL1        0.4523
     26 F         144.4976  135.2411  154.9704 F       1  UNL1       -0.1632
     27 F         144.5159  137.2604  155.6200 F       1  UNL1       -0.1632
     28 F         142.6608  134.9313  155.9852 F       1  UNL1       -0.1632
     29 C         142.9264  139.8130  159.3726 C.3     1  UNL1        0.1427
     30 N         142.8734  139.5614  160.8505 N.am    1  UNL1       -0.2380
     31 C         143.3553  138.3265  161.5524 C.2     1  UNL1        0.4055
     32 O         143.9749  137.1264  160.8999 O.2     1  UNL1       -0.2262
     33 O         143.1089  138.5025  163.0216 O.3     1  UNL1       -0.4320
     34 C         142.4746  139.8461  163.2275 C.3     1  UNL1        0.2107
     35 C         142.3291  140.5006  161.8857 C.3     1  UNL1        0.1233
     36 C         141.7423  141.8561  161.6249 C.3     1  UNL1        0.0258
     37 C         142.0590  140.4324  164.5441 C.ar    1  UNL1        0.0189
     38 C         141.2439  141.6911  164.5809 C.ar    1  UNL1        0.0031
     39 C         140.8282  142.2773  165.8974 C.ar    1  UNL1        0.0712
     40 C         141.2276  141.6049  167.1774 C.ar    1  UNL1        0.0077
     41 C         142.0427  140.3461  167.1407 C.ar    1  UNL1        0.0712
     42 C         142.4583  139.7600  165.8241 C.ar    1  UNL1        0.0031
     43 C         140.0132  143.5360  165.9341 C.3     1  UNL1        0.4186
     44 F         139.1981  144.7947  165.9707 F       1  UNL1       -0.1659
     45 F         139.9632  143.4600  167.4313 F       1  UNL1       -0.1659
     46 F         140.0631  143.6120  164.4368 F       1  UNL1       -0.1659
     47 C         142.4421  139.6737  168.4207 C.3     1  UNL1        0.4186
     48 F         142.8414  139.0013  169.7007 F       1  UNL1       -0.1659
     49 F         143.1006  138.5761  167.6387 F       1  UNL1       -0.1659
     50 F         141.7836  140.7713  169.2028 F       1  UNL1       -0.1659
@<TRIPOS>UNITY_ATOM_ATTR
21 1
charge -1
@<TRIPOS>BOND
     1    23    24    1
     2    24     7    1
     3     7     8   ar
     4     8     9   ar
     5     9    10   ar
     6    10    13    1
     7    13    14   ar
     8    14    15   ar
     9    15    16   ar
    10    16    20    1
    11    20    21   ar
    12    20    22   ar
    13    16    17   ar
    14    17    18   ar
    15    18    19    1
    16    10    11   ar
    17    11    12   ar
    18    12     1    1
    19     1     2   ar
    20     2     3   ar
    21     3     4   ar
    22     4    25    1
    23    25    26    1
    24    25    27    1
    25    25    28    1
    26     4     5   ar
    27     5     6   ar
    28     6    29    1
    29    29    30    1
    30    30    31   am
    31    31    32    2
    32    31    33    1
    33    33    34    1
    34    34    37    1
    35    37    38   ar
    36    38    39   ar
    37    39    43    1
    38    43    44    1
    39    43    45    1
    40    43    46    1
    41    39    40   ar
    42    40    41   ar
    43    41    47    1
    44    47    48    1
    45    47    49    1
    46    47    50    1
    47    41    42   ar
    48    34    35    1
    49    35    36    1
    50    12     7   ar
    51     6     1   ar
    52    35    30    1
    53    18    13   ar
    54    42    37   ar
@<TRIPOS>MOLECULE
*****
 50 54 0 0 0
SMALL
GASTEIGER

@<TRIPOS>ATOM
      1 C         140.9770  138.8282  158.3529 C.ar    1  UNL1        0.0389
      2 C         140.4146  137.7715  157.4490 C.ar    1  UNL1        0.1019
      3 N         141.3355  136.9250  156.6211 N.ar    1  UNL1       -0.2218
      4 C         142.8188  137.1352  156.6970 C.ar    1  UNL1        0.2349
      5 N         143.3812  138.1920  157.6009 N.ar    1  UNL1       -0.2260
      6 C         142.4602  139.0385  158.4289 C.ar    1  UNL1        0.0824
      7 C         139.3541  140.8464  158.5610 C.ar    1  UNL1        0.2249
      8 N         138.4332  141.6928  159.3889 N.ar    1  UNL1       -0.2101
      9 C         138.2144  141.3675  160.8368 C.ar    1  UNL1        0.1020
     10 C         138.9164  140.1958  161.4567 C.ar    1  UNL1        0.0191
     11 C         139.8372  139.3494  160.6287 C.ar    1  UNL1        0.0063
     12 C         140.0561  139.6747  159.1809 C.ar    1  UNL1        0.0559
     13 C         138.6975  139.8706  162.9045 C.ar    1  UNL1       -0.0025
     14 C         137.9930  140.8506  163.7952 C.ar    1  UNL1       -0.0002
     15 C         137.7741  140.5253  165.2431 C.ar    1  UNL1        0.0011
     16 C         138.2597  139.2201  165.8002 C.ar    1  UNL1        0.0137
     17 C         138.9642  138.2401  164.9096 C.ar    1  UNL1       -0.0031
     18 C         139.1831  138.5654  163.4617 C.ar    1  UNL1       -0.0218
     19 C         139.8876  137.5853  162.5711 C.3     1  UNL1        0.0310
     20 C         138.0408  138.8948  167.2481 C.2     1  UNL1        0.0729
     21 O         138.9207  139.5091  168.2961 O.co2   1  UNL1       -0.5446
     22 O         136.9421  137.9552  167.6479 O.co2   1  UNL1       -0.5446
     23 C         138.5538  140.7647  156.0906 C.3     1  UNL1        0.2542
     24 O         139.5730  141.1716  157.1131 O.3     1  UNL1       -0.4561
     25 C         143.7396  136.2888  155.8691 C.3     1  UNL1        0.4523
     26 F         144.6604  135.4423  155.0412 F       1  UNL1       -0.1632
     27 F         142.8956  135.0839  156.1622 F       1  UNL1       -0.1632
     28 F         144.5836  137.4936  155.5760 F       1  UNL1       -0.1632
     29 C         143.0226  140.0952  159.3328 C.3     1  UNL1        0.1427
     30 N         142.9258  139.9380  160.8214 N.am    1  UNL1       -0.2380
     31 C         143.3567  138.7376  161.6110 C.2     1  UNL1        0.4055
     32 O         143.9599  137.4837  161.0506 O.2     1  UNL1       -0.2262
     33 O         143.0784  139.0112  163.0594 O.3     1  UNL1       -0.4320
     34 C         142.4756  140.3807  163.1649 C.3     1  UNL1        0.2107
     35 C         142.3813  140.9535  161.7817 C.3     1  UNL1        0.1233
     36 C         141.8379  142.3045  161.4220 C.3     1  UNL1        0.0258
     37 C         142.0430  141.0584  164.4311 C.ar    1  UNL1        0.0189
     38 C         142.6074  140.6168  165.7488 C.ar    1  UNL1        0.0031
     39 C         142.1749  141.2945  167.0151 C.ar    1  UNL1        0.0712
     40 C         141.1777  142.4140  166.9637 C.ar    1  UNL1        0.0077
     41 C         140.6132  142.8557  165.6460 C.ar    1  UNL1        0.0712
     42 C         141.0459  142.1779  164.3797 C.ar    1  UNL1        0.0031
     43 C         142.7393  140.8529  168.3327 C.3     1  UNL1        0.4186
     44 F         143.3038  140.4112  169.6504 F       1  UNL1       -0.1659
     45 F         142.2487  139.4589  168.0757 F       1  UNL1       -0.1659
     46 F         143.2301  142.2469  168.5898 F       1  UNL1       -0.1659
     47 C         139.6161  143.9751  165.5946 C.3     1  UNL1        0.4186
     48 F         138.6190  145.0945  165.5433 F       1  UNL1       -0.1659
     49 F         139.6014  144.0308  167.0935 F       1  UNL1       -0.1659
     50 F         139.6308  143.9194  164.0958 F       1  UNL1       -0.1659
@<TRIPOS>UNITY_ATOM_ATTR
21 1
charge -1
@<TRIPOS>BOND
     1    23    24    1
     2    24     7    1
     3     7     8   ar
     4     8     9   ar
     5     9    10   ar
     6    10    13    1
     7    13    14   ar
     8    14    15   ar
     9    15    16   ar
    10    16    20    1
    11    20    21   ar
    12    20    22   ar
    13    16    17   ar
    14    17    18   ar
    15    18    19    1
    16    10    11   ar
    17    11    12   ar
    18    12     1    1
    19     1     2   ar
    20     2     3   ar
    21     3     4   ar
    22     4    25    1
    23    25    26    1
    24    25    27    1
    25    25    28    1
    26     4     5   ar
    27     5     6   ar
    28     6    29    1
    29    29    30    1
    30    30    31   am
    31    31    32    2
    32    31    33    1
    33    33    34    1
    34    34    37    1
    35    37    38   ar
    36    38    39   ar
    37    39    43    1
    38    43    44    1
    39    43    45    1
    40    43    46    1
    41    39    40   ar
    42    40    41   ar
    43    41    47    1
    44    47    48    1
    45    47    49    1
    46    47    50    1
    47    41    42   ar
    48    34    35    1
    49    35    36    1
    50    12     7   ar
    51     6     1   ar
    52    35    30    1
    53    18    13   ar
    54    42    37   ar
@<TRIPOS>MOLECULE
*****
 50 54 0 0 0
SMALL
GASTEIGER

@<TRIPOS>ATOM
      1 C         141.0151  142.0633  158.4943 C.ar    1  UNL1        0.0389
      2 C         141.9524  142.7365  157.5360 C.ar    1  UNL1        0.1019
      3 N         141.6277  144.1004  157.0027 N.ar    1  UNL1       -0.2218
      4 C         140.3657  144.7910  157.4275 C.ar    1  UNL1        0.2349
      5 N         139.4284  144.1177  158.3858 N.ar    1  UNL1       -0.2260
      6 C         139.7532  142.7538  158.9192 C.ar    1  UNL1        0.0824
      7 C         141.2814  139.5060  158.1208 C.ar    1  UNL1        0.2249
      8 N         141.6062  138.1422  158.6542 N.ar    1  UNL1       -0.2101
      9 C         141.9894  137.9718  160.0944 C.ar    1  UNL1        0.1020
     10 C         142.0479  139.1651  161.0012 C.ar    1  UNL1        0.0191
     11 C         141.7231  140.5289  160.4678 C.ar    1  UNL1        0.0063
     12 C         141.3399  140.6994  159.0276 C.ar    1  UNL1        0.0559
     13 C         142.4311  138.9947  162.4414 C.ar    1  UNL1       -0.0025
     14 C         141.5465  138.2112  163.3652 C.ar    1  UNL1       -0.0002
     15 C         141.9297  138.0408  164.8053 C.ar    1  UNL1        0.0011
     16 C         143.1975  138.6539  165.3217 C.ar    1  UNL1        0.0137
     17 C         144.0821  139.4375  164.3979 C.ar    1  UNL1       -0.0031
     18 C         143.6989  139.6079  162.9577 C.ar    1  UNL1       -0.0218
     19 C         144.5835  140.3915  162.0339 C.3     1  UNL1        0.0310
     20 C         143.5807  138.4835  166.7619 C.2     1  UNL1        0.0729
     21 O         144.5162  137.3821  167.1638 O.co2   1  UNL1       -0.5446
     22 O         143.0284  139.4146  167.8002 O.co2   1  UNL1       -0.5446
     23 C         139.5078  139.3400  156.2297 C.3     1  UNL1        0.2542
     24 O         140.8982  139.6764  156.6806 O.3     1  UNL1       -0.4561
     25 C         140.0410  146.1548  156.8942 C.3     1  UNL1        0.4523
     26 F         139.7163  147.5186  156.3608 F       1  UNL1       -0.1632
     27 F         139.6679  146.6060  158.2752 F       1  UNL1       -0.1632
     28 F         140.4141  145.7035  155.5132 F       1  UNL1       -0.1632
     29 C         138.8159  142.0805  159.8774 C.3     1  UNL1        0.1427
     30 N         138.9872  142.2741  161.3550 N.am    1  UNL1       -0.2380
     31 C         139.2580  143.5767  162.0479 C.2     1  UNL1        0.4055
     32 O         139.4049  144.9142  161.3850 O.2     1  UNL1       -0.2262
     33 O         139.3559  143.3068  163.5203 O.3     1  UNL1       -0.4320
     34 C         139.1458  141.8375  163.7372 C.3     1  UNL1        0.2107
     35 C         138.9179  141.1993  162.3990 C.3     1  UNL1        0.1233
     36 C         138.6651  139.7421  162.1486 C.3     1  UNL1        0.0258
     37 C         139.1608  141.1305  165.0600 C.ar    1  UNL1        0.0189
     38 C         139.8292  141.7664  166.2428 C.ar    1  UNL1        0.0031
     39 C         139.8442  141.0595  167.5655 C.ar    1  UNL1        0.0712
     40 C         139.1909  139.7165  167.7057 C.ar    1  UNL1        0.0077
     41 C         138.5225  139.0805  166.5229 C.ar    1  UNL1        0.0712
     42 C         138.5075  139.7876  165.2001 C.ar    1  UNL1        0.0031
     43 C         140.5125  141.6955  168.7483 C.3     1  UNL1        0.4186
     44 F         141.1809  142.3314  169.9310 F       1  UNL1       -0.1659
     45 F         140.5373  143.0105  168.0272 F       1  UNL1       -0.1659
     46 F         140.4878  140.3804  169.4694 F       1  UNL1       -0.1659
     47 C         137.8692  137.7376  166.6631 C.3     1  UNL1        0.4186
     48 F         137.2159  136.3946  166.8033 F       1  UNL1       -0.1659
     49 F         138.7137  137.2097  165.5415 F       1  UNL1       -0.1659
     50 F         137.0246  138.2655  167.7847 F       1  UNL1       -0.1659
@<TRIPOS>UNITY_ATOM_ATTR
21 1
charge -1
@<TRIPOS>BOND
     1    23    24    1
     2    24     7    1
     3     7     8   ar
     4     8     9   ar
     5     9    10   ar
     6    10    13    1
     7    13    14   ar
     8    14    15   ar
     9    15    16   ar
    10    16    20    1
    11    20    21   ar
    12    20    22   ar
    13    16    17   ar
    14    17    18   ar
    15    18    19    1
    16    10    11   ar
    17    11    12   ar
    18    12     1    1
    19     1     2   ar
    20     2     3   ar
    21     3     4   ar
    22     4    25    1
    23    25    26    1
    24    25    27    1
    25    25    28    1
    26     4     5   ar
    27     5     6   ar
    28     6    29    1
    29    29    30    1
    30    30    31   am
    31    31    32    2
    32    31    33    1
    33    33    34    1
    34    34    37    1
    35    37    38   ar
    36    38    39   ar
    37    39    43    1
    38    43    44    1
    39    43    45    1
    40    43    46    1
    41    39    40   ar
    42    40    41   ar
    43    41    47    1
    44    47    48    1
    45    47    49    1
    46    47    50    1
    47    41    42   ar
    48    34    35    1
    49    35    36    1
    50    12     7   ar
    51     6     1   ar
    52    35    30    1
    53    18    13   ar
    54    42    37   ar
@<TRIPOS>MOLECULE
*****
 50 54 0 0 0
SMALL
GASTEIGER

@<TRIPOS>ATOM
      1 C         141.6822  142.3340  158.6842 C.ar    1  UNL1        0.0389
      2 C         142.5959  143.5156  158.5461 C.ar    1  UNL1        0.1019
      3 N         142.0469  144.8409  158.1078 N.ar    1  UNL1       -0.2218
      4 C         140.5843  144.9847  157.8075 C.ar    1  UNL1        0.2349
      5 N         139.6707  143.8031  157.9455 N.ar    1  UNL1       -0.2260
      6 C         140.2197  142.4777  158.3839 C.ar    1  UNL1        0.0824
      7 C         142.5974  139.9735  158.1007 C.ar    1  UNL1        0.2249
      8 N         143.1464  138.6482  158.5391 N.ar    1  UNL1       -0.2101
      9 C         143.3292  138.3581  159.9993 C.ar    1  UNL1        0.1020
     10 C         142.9630  139.3933  161.0212 C.ar    1  UNL1        0.0191
     11 C         142.4140  140.7185  160.5828 C.ar    1  UNL1        0.0063
     12 C         142.2312  141.0087  159.1226 C.ar    1  UNL1        0.0559
     13 C         143.1458  139.1032  162.4815 C.ar    1  UNL1       -0.0025
     14 C         142.3437  138.0182  163.1368 C.ar    1  UNL1       -0.0002
     15 C         142.5265  137.7281  164.5971 C.ar    1  UNL1        0.0011
     16 C         143.5114  138.5229  165.4021 C.ar    1  UNL1        0.0137
     17 C         144.3135  139.6079  164.7468 C.ar    1  UNL1       -0.0031
     18 C         144.1307  139.8980  163.2865 C.ar    1  UNL1       -0.0218
     19 C         144.9329  140.9830  162.6313 C.3     1  UNL1        0.0310
     20 C         143.6941  138.2328  166.8624 C.2     1  UNL1        0.0729
     21 O         143.0566  139.1213  167.8891 O.co2   1  UNL1       -0.5446
     22 O         144.5145  137.0543  167.2959 O.co2   1  UNL1       -0.5446
     23 C         141.3414  139.5593  155.8644 C.3     1  UNL1        0.2542
     24 O         142.4146  140.2636  156.6404 O.3     1  UNL1       -0.4561
     25 C         140.0354  146.3100  157.3691 C.3     1  UNL1        0.4523
     26 F         139.4864  147.6353  156.9308 F       1  UNL1       -0.1632
     27 F         140.4291  146.0051  155.9542 F       1  UNL1       -0.1632
     28 F         139.6417  146.6149  158.7840 F       1  UNL1       -0.1632
     29 C         139.3060  141.2961  158.5219 C.3     1  UNL1        0.1427
     30 N         139.3640  140.4432  159.7546 N.am    1  UNL1       -0.2380
     31 C         139.4156  138.9444  159.7880 C.2     1  UNL1        0.4055
     32 O         139.4182  138.0354  158.5948 O.2     1  UNL1       -0.2262
     33 O         139.4640  138.5142  161.2242 O.3     1  UNL1       -0.4320
     34 C         139.4424  139.7472  162.0783 C.3     1  UNL1        0.2107
     35 C         139.3806  140.9393  161.1700 C.3     1  UNL1        0.1233
     36 C         139.3421  142.3754  161.6014 C.3     1  UNL1        0.0258
     37 C         139.4766  139.7819  163.5775 C.ar    1  UNL1        0.0189
     38 C         140.3621  140.7644  164.2850 C.ar    1  UNL1        0.0031
     39 C         140.3962  140.7991  165.7842 C.ar    1  UNL1        0.0712
     40 C         139.5450  139.8513  166.5759 C.ar    1  UNL1        0.0077
     41 C         138.6594  138.8687  165.8685 C.ar    1  UNL1        0.0712
     42 C         138.6253  138.8340  164.3692 C.ar    1  UNL1        0.0031
     43 C         141.2817  141.7816  166.4916 C.3     1  UNL1        0.4186
     44 F         142.1672  142.7642  167.1991 F       1  UNL1       -0.1659
     45 F         141.9142  142.1536  165.1834 F       1  UNL1       -0.1659
     46 F         140.6492  141.4097  167.8000 F       1  UNL1       -0.1659
     47 C         137.8081  137.9208  166.6602 C.3     1  UNL1        0.4186
     48 F         136.9568  136.9730  167.4520 F       1  UNL1       -0.1659
     49 F         137.4719  139.0240  167.6193 F       1  UNL1       -0.1659
     50 F         138.1444  136.8176  165.7011 F       1  UNL1       -0.1659
@<TRIPOS>UNITY_ATOM_ATTR
21 1
charge -1
@<TRIPOS>BOND
     1    23    24    1
     2    24     7    1
     3     7     8   ar
     4     8     9   ar
     5     9    10   ar
     6    10    13    1
     7    13    14   ar
     8    14    15   ar
     9    15    16   ar
    10    16    20    1
    11    20    21   ar
    12    20    22   ar
    13    16    17   ar
    14    17    18   ar
    15    18    19    1
    16    10    11   ar
    17    11    12   ar
    18    12     1    1
    19     1     2   ar
    20     2     3   ar
    21     3     4   ar
    22     4    25    1
    23    25    26    1
    24    25    27    1
    25    25    28    1
    26     4     5   ar
    27     5     6   ar
    28     6    29    1
    29    29    30    1
    30    30    31   am
    31    31    32    2
    32    31    33    1
    33    33    34    1
    34    34    37    1
    35    37    38   ar
    36    38    39   ar
    37    39    43    1
    38    43    44    1
    39    43    45    1
    40    43    46    1
    41    39    40   ar
    42    40    41   ar
    43    41    47    1
    44    47    48    1
    45    47    49    1
    46    47    50    1
    47    41    42   ar
    48    34    35    1
    49    35    36    1
    50    12     7   ar
    51     6     1   ar
    52    35    30    1
    53    18    13   ar
    54    42    37   ar
@<TRIPOS>MOLECULE
*****
 50 54 0 0 0
SMALL
GASTEIGER

@<TRIPOS>ATOM
      1 C         142.1147  141.6045  159.0736 C.ar    1  UNL1        0.0389
      2 C         142.9178  140.5611  158.3552 C.ar    1  UNL1        0.1019
      3 N         144.3120  140.8713  157.8973 N.ar    1  UNL1       -0.2218
      4 C         144.9033  142.2250  158.1579 C.ar    1  UNL1        0.2349
      5 N         144.1002  143.2685  158.8763 N.ar    1  UNL1       -0.2260
      6 C         142.7059  142.9582  159.3342 C.ar    1  UNL1        0.0824
      7 C         139.5701  141.4307  158.5784 C.ar    1  UNL1        0.2249
      8 N         138.1759  141.1204  159.0363 N.ar    1  UNL1       -0.2101
      9 C         137.9318  140.6737  160.4473 C.ar    1  UNL1        0.1020
     10 C         139.0820  140.5374  161.4004 C.ar    1  UNL1        0.0191
     11 C         140.4762  140.8476  160.9425 C.ar    1  UNL1        0.0063
     12 C         140.7203  141.2943  159.5315 C.ar    1  UNL1        0.0559
     13 C         138.8379  140.0907  162.8114 C.ar    1  UNL1       -0.0025
     14 C         138.1719  141.0158  163.7864 C.ar    1  UNL1       -0.0002
     15 C         137.9278  140.5692  165.1974 C.ar    1  UNL1        0.0011
     16 C         138.3497  139.1974  165.6334 C.ar    1  UNL1        0.0137
     17 C         139.0156  138.2723  164.6585 C.ar    1  UNL1       -0.0031
     18 C         139.2597  138.7189  163.2475 C.ar    1  UNL1       -0.0218
     19 C         139.9257  137.7937  162.2725 C.3     1  UNL1        0.0310
     20 C         138.1056  138.7508  167.0444 C.2     1  UNL1        0.0729
     21 O         138.8857  139.3622  168.1702 O.co2   1  UNL1       -0.5446
     22 O         137.0814  137.6927  167.3296 O.co2   1  UNL1       -0.5446
     23 C         139.7441  143.3346  156.8193 C.3     1  UNL1        0.2542
     24 O         139.8142  141.8773  157.1674 O.3     1  UNL1       -0.4561
     25 C         146.2976  142.5352  157.7000 C.3     1  UNL1        0.4523
     26 F         147.6919  142.8454  157.2421 F       1  UNL1       -0.1632
     27 F         146.6284  143.0627  159.0646 F       1  UNL1       -0.1632
     28 F         145.9668  142.0078  156.3354 F       1  UNL1       -0.1632
     29 C         141.9028  144.0017  160.0527 C.3     1  UNL1        0.1427
     30 N         141.3788  143.7275  161.4312 N.am    1  UNL1       -0.2380
     31 C         140.0709  144.2058  161.9886 C.2     1  UNL1        0.4055
     32 O         139.0574  145.0422  161.2654 O.2     1  UNL1       -0.2262
     33 O         139.9546  143.7007  163.3963 O.3     1  UNL1       -0.4320
     34 C         141.1906  142.9102  163.7088 C.3     1  UNL1        0.2107
     35 C         142.0708  142.9268  162.4943 C.3     1  UNL1        0.1233
     36 C         143.4081  142.2599  162.3655 C.3     1  UNL1        0.0258
     37 C         141.4932  142.2238  165.0076 C.ar    1  UNL1        0.0189
     38 C         141.1774  142.9039  166.3068 C.ar    1  UNL1        0.0031
     39 C         141.4800  142.2174  167.6057 C.ar    1  UNL1        0.0712
     40 C         142.0984  140.8509  167.6055 C.ar    1  UNL1        0.0077
     41 C         142.4142  140.1707  166.3063 C.ar    1  UNL1        0.0712
     42 C         142.1116  140.8572  165.0074 C.ar    1  UNL1        0.0031
     43 C         141.1642  142.8976  168.9048 C.3     1  UNL1        0.4186
     44 F         140.8484  143.5777  170.2039 F       1  UNL1       -0.1659
     45 F         142.2675  142.1324  169.5735 F       1  UNL1       -0.1659
     46 F         140.0608  143.6627  168.2360 F       1  UNL1       -0.1659
     47 C         143.0326  138.8041  166.3061 C.3     1  UNL1        0.4186
     48 F         143.6510  137.4375  166.3060 F       1  UNL1       -0.1659
     49 F         142.8244  138.7101  164.8236 F       1  UNL1       -0.1659
     50 F         143.2408  138.8981  167.7886 F       1  UNL1       -0.1659
@<TRIPOS>UNITY_ATOM_ATTR
21 1
charge -1
@<TRIPOS>BOND
     1    23    24    1
     2    24     7    1
     3     7     8   ar
     4     8     9   ar
     5     9    10   ar
     6    10    13    1
     7    13    14   ar
     8    14    15   ar
     9    15    16   ar
    10    16    20    1
    11    20    21   ar
    12    20    22   ar
    13    16    17   ar
    14    17    18   ar
    15    18    19    1
    16    10    11   ar
    17    11    12   ar
    18    12     1    1
    19     1     2   ar
    20     2     3   ar
    21     3     4   ar
    22     4    25    1
    23    25    26    1
    24    25    27    1
    25    25    28    1
    26     4     5   ar
    27     5     6   ar
    28     6    29    1
    29    29    30    1
    30    30    31   am
    31    31    32    2
    32    31    33    1
    33    33    34    1
    34    34    37    1
    35    37    38   ar
    36    38    39   ar
    37    39    43    1
    38    43    44    1
    39    43    45    1
    40    43    46    1
    41    39    40   ar
    42    40    41   ar
    43    41    47    1
    44    47    48    1
    45    47    49    1
    46    47    50    1
    47    41    42   ar
    48    34    35    1
    49    35    36    1
    50    12     7   ar
    51     6     1   ar
    52    35    30    1
    53    18    13   ar
    54    42    37   ar
