@<TRIPOS>MOLECULE
*****
 29 32 0 0 0
SMALL
GASTEIGER

@<TRIPOS>ATOM
      1 C         139.3804  141.7580  164.5982 C.ar    1  UNL1        0.0042
      2 C         139.1488  143.1422  164.0686 C.ar    1  UNL1        0.0144
      3 C         138.8262  143.3459  162.6180 C.ar    1  UNL1        0.0461
      4 C         138.7352  142.1654  161.6969 C.ar    1  UNL1        0.0308
      5 C         138.4126  142.3692  160.2462 C.ar    1  UNL1        0.0043
      6 C         138.3216  141.1888  159.3252 C.ar    1  UNL1        0.0207
      7 C         138.5532  139.8046  159.8549 C.ar    1  UNL1        0.0988
      8 N         138.8758  139.6009  161.3055 N.ar    1  UNL1       -0.2438
      9 C         138.9668  140.7813  162.2265 C.ar    1  UNL1        0.0825
     10 C         139.2894  140.5776  163.6772 C.ar    1  UNL1        0.0192
     11 C         140.3482  141.1471  168.9502 C.ar    1  UNL1        0.1318
     12 C         140.6609  142.4566  168.2891 C.ar    1  UNL1        0.0343
     13 C         140.3383  142.6602  166.8384 C.ar    1  UNL1        0.0044
     14 C         139.7030  141.5543  166.0490 C.ar    1  UNL1        0.0194
     15 C         139.3902  140.2448  166.7101 C.ar    1  UNL1        0.1003
     16 N         139.7128  140.0412  168.1608 N.ar    1  UNL1       -0.2292
     17 C         141.5816  141.9024  171.1086 C.3     1  UNL1        0.1136
     18 N         140.6708  140.9434  170.4010 N.pl3   1  UNL1       -0.2897
     19 C         140.0825  139.7807  171.1440 C.3     1  UNL1        0.1136
     20 N         138.5946  144.7300  162.0883 N.pl3   1  UNL1       -0.3326
     21 H         137.6907  145.0072  161.8138 H       1  UNL1        0.1468
     22 C         139.7402  145.6919  161.9770 C.3     1  UNL1        0.0883
     23 C         141.1426  145.2195  162.2219 C.3     1  UNL1        0.0353
     24 C         141.8035  145.4845  163.5422 C.3     1  UNL1        0.0045
     25 C         143.2059  145.0121  163.7871 C.3     1  UNL1        0.0172
     26 C         143.9475  144.2748  162.7117 C.3     1  UNL1        0.0686
     27 N         143.2867  144.0099  161.3914 N.3     1  UNL1       -0.2974
     28 C         141.8842  144.4822  161.1465 C.3     1  UNL1        0.0702
     29 H         143.2835  142.9982  161.2615 H       1  UNL1        0.1232
@<TRIPOS>BOND
     1    17    18    1
     2    18    19    1
     3    18    11    1
     4    11    12   ar
     5    12    13   ar
     6    13    14   ar
     7    14     1    1
     8     1     2   ar
     9     2     3   ar
    10     3    20    1
    11    20    22    1
    12    23    22    1
    13    23    24    1
    14    24    25    1
    15    25    26    1
    16    26    27    1
    17    27    28    1
    18     3     4   ar
    19     4     5   ar
    20     5     6   ar
    21     6     7   ar
    22     7     8   ar
    23     8     9   ar
    24     9    10   ar
    25    14    15   ar
    26    15    16   ar
    27    16    11   ar
    28    10     1   ar
    29    28    23    1
    30     9     4   ar
    31    20    21    1
    32    27    29    1
@<TRIPOS>MOLECULE
*****
 29 32 0 0 0
SMALL
GASTEIGER

@<TRIPOS>ATOM
      1 C         140.4425  142.3536  164.2700 C.ar    1  UNL1        0.0042
      2 C         139.2841  141.4528  163.9591 C.ar    1  UNL1        0.0144
      3 C         138.6899  141.4434  162.5819 C.ar    1  UNL1        0.0461
      4 C         139.2541  142.3348  161.5155 C.ar    1  UNL1        0.0308
      5 C         138.6599  142.3254  160.1383 C.ar    1  UNL1        0.0043
      6 C         139.2241  143.2168  159.0720 C.ar    1  UNL1        0.0207
      7 C         140.3825  144.1176  159.3829 C.ar    1  UNL1        0.0988
      8 N         140.9767  144.1270  160.7601 N.ar    1  UNL1       -0.2438
      9 C         140.4125  143.2356  161.8264 C.ar    1  UNL1        0.0825
     10 C         141.0067  143.2450  163.2037 C.ar    1  UNL1        0.0192
     11 C         142.2249  142.3816  168.4019 C.ar    1  UNL1        0.1318
     12 C         140.7441  142.5399  168.2228 C.ar    1  UNL1        0.0343
     13 C         140.1500  142.5305  166.8455 C.ar    1  UNL1        0.0044
     14 C         141.0367  142.3629  165.6473 C.ar    1  UNL1        0.0194
     15 C         142.5175  142.2047  165.8264 C.ar    1  UNL1        0.1003
     16 N         143.1116  142.2140  167.2037 N.ar    1  UNL1       -0.2292
     17 C         141.9416  142.1727  170.9760 C.3     1  UNL1        0.1136
     18 N         142.8191  142.3910  169.7792 N.pl3   1  UNL1       -0.2897
     19 C         144.2907  142.6186  169.9596 C.3     1  UNL1        0.1136
     20 N         137.5314  140.5426  162.2709 N.pl3   1  UNL1       -0.3326
     21 H         136.6156  140.9037  162.2622 H       1  UNL1        0.1468
     22 C         137.7684  139.0917  161.9733 C.3     1  UNL1        0.0883
     23 C         138.9075  138.3680  162.6282 C.3     1  UNL1        0.0353
     24 C         138.8622  138.0725  164.0981 C.3     1  UNL1        0.0045
     25 C         140.0013  137.3488  164.7530 C.3     1  UNL1        0.0172
     26 C         141.1855  136.9206  163.9379 C.3     1  UNL1        0.0686
     27 N         141.2307  137.2161  162.4681 N.3     1  UNL1       -0.2974
     28 C         140.0917  137.9398  161.8132 C.3     1  UNL1        0.0702
     29 H         141.3237  136.3198  161.9902 H       1  UNL1        0.1232
@<TRIPOS>BOND
     1    17    18    1
     2    18    19    1
     3    18    11    1
     4    11    12   ar
     5    12    13   ar
     6    13    14   ar
     7    14     1    1
     8     1     2   ar
     9     2     3   ar
    10     3    20    1
    11    20    22    1
    12    23    22    1
    13    23    24    1
    14    24    25    1
    15    25    26    1
    16    26    27    1
    17    27    28    1
    18     3     4   ar
    19     4     5   ar
    20     5     6   ar
    21     6     7   ar
    22     7     8   ar
    23     8     9   ar
    24     9    10   ar
    25    14    15   ar
    26    15    16   ar
    27    16    11   ar
    28    10     1   ar
    29    28    23    1
    30     9     4   ar
    31    20    21    1
    32    27    29    1
@<TRIPOS>MOLECULE
*****
 29 32 0 0 0
SMALL
GASTEIGER

@<TRIPOS>ATOM
      1 C         139.5223  141.8235  164.5175 C.ar    1  UNL1        0.0042
      2 C         138.5801  140.8793  163.8314 C.ar    1  UNL1        0.0144
      3 C         138.2888  141.0412  162.3690 C.ar    1  UNL1        0.0461
      4 C         138.9397  142.1474  161.5925 C.ar    1  UNL1        0.0308
      5 C         138.6484  142.3093  160.1300 C.ar    1  UNL1        0.0043
      6 C         139.2993  143.4154  159.3537 C.ar    1  UNL1        0.0207
      7 C         140.2415  144.3596  160.0398 C.ar    1  UNL1        0.0988
      8 N         140.5328  144.1977  161.5022 N.ar    1  UNL1       -0.2438
      9 C         139.8819  143.0916  162.2786 C.ar    1  UNL1        0.0825
     10 C         140.1732  142.9297  163.7412 C.ar    1  UNL1        0.0192
     11 C         140.3962  141.3378  168.9050 C.ar    1  UNL1        0.1318
     12 C         140.6923  142.6395  168.2210 C.ar    1  UNL1        0.0343
     13 C         140.4009  142.8014  166.7585 C.ar    1  UNL1        0.0044
     14 C         139.8136  141.6616  165.9801 C.ar    1  UNL1        0.0194
     15 C         139.5176  140.3599  166.6641 C.ar    1  UNL1        0.1003
     16 N         139.8089  140.1980  168.1266 N.ar    1  UNL1       -0.2292
     17 C         140.1287  140.0036  171.1183 C.3     1  UNL1        0.1136
     18 N         140.6875  141.1758  170.3676 N.pl3   1  UNL1       -0.2897
     19 C         141.5377  142.1861  171.0794 C.3     1  UNL1        0.1136
     20 N         137.3466  140.0970  161.6829 N.pl3   1  UNL1       -0.3326
     21 H         136.4418  140.3969  161.4365 H       1  UNL1        0.1468
     22 C         137.7829  138.6960  161.3721 C.3     1  UNL1        0.0883
     23 C         139.2433  138.3730  161.2584 C.3     1  UNL1        0.0353
     24 C         140.0066  138.7736  160.0307 C.3     1  UNL1        0.0045
     25 C         141.4670  138.4507  159.9170 C.3     1  UNL1        0.0172
     26 C         142.1641  137.7271  161.0308 C.3     1  UNL1        0.0686
     27 N         141.4008  137.3266  162.2584 N.3     1  UNL1       -0.2974
     28 C         139.9404  137.6496  162.3722 C.3     1  UNL1        0.0702
     29 H         141.8634  137.7717  163.0510 H       1  UNL1        0.1232
@<TRIPOS>BOND
     1    17    18    1
     2    18    19    1
     3    18    11    1
     4    11    12   ar
     5    12    13   ar
     6    13    14   ar
     7    14     1    1
     8     1     2   ar
     9     2     3   ar
    10     3    20    1
    11    20    22    1
    12    23    22    1
    13    23    24    1
    14    24    25    1
    15    25    26    1
    16    26    27    1
    17    27    28    1
    18     3     4   ar
    19     4     5   ar
    20     5     6   ar
    21     6     7   ar
    22     7     8   ar
    23     8     9   ar
    24     9    10   ar
    25    14    15   ar
    26    15    16   ar
    27    16    11   ar
    28    10     1   ar
    29    28    23    1
    30     9     4   ar
    31    20    21    1
    32    27    29    1
@<TRIPOS>MOLECULE
*****
 29 32 0 0 0
SMALL
GASTEIGER

@<TRIPOS>ATOM
      1 C         140.2595  139.9534  164.6482 C.ar    1  UNL1        0.0042
      2 C         141.2727  138.9616  164.1586 C.ar    1  UNL1        0.0144
      3 C         141.2462  138.5054  162.7300 C.ar    1  UNL1        0.0461
      4 C         140.2064  139.0411  161.7908 C.ar    1  UNL1        0.0308
      5 C         140.1799  138.5849  160.3621 C.ar    1  UNL1        0.0043
      6 C         139.1402  139.1205  159.4230 C.ar    1  UNL1        0.0207
      7 C         138.1270  140.1124  159.9125 C.ar    1  UNL1        0.0988
      8 N         138.1535  140.5686  161.3412 N.ar    1  UNL1       -0.2438
      9 C         139.1932  140.0329  162.2803 C.ar    1  UNL1        0.0825
     10 C         139.2198  140.4891  163.7091 C.ar    1  UNL1        0.0192
     11 C         140.3392  141.3219  168.9343 C.ar    1  UNL1        0.1318
     12 C         139.4412  140.1926  168.5242 C.ar    1  UNL1        0.0343
     13 C         139.4147  139.7365  167.0955 C.ar    1  UNL1        0.0044
     14 C         140.2861  140.4096  166.0769 C.ar    1  UNL1        0.0194
     15 C         141.1841  141.5389  166.4871 C.ar    1  UNL1        0.1003
     16 N         141.2106  141.9951  167.9158 N.ar    1  UNL1       -0.2292
     17 C         139.6764  143.0507  170.7570 C.3     1  UNL1        0.1136
     18 N         140.3657  141.7781  170.3631 N.pl3   1  UNL1       -0.2897
     19 C         141.0817  140.9616  171.3979 C.3     1  UNL1        0.1136
     20 N         142.2594  137.5136  162.2404 N.pl3   1  UNL1       -0.3326
     21 H         142.0555  136.5506  162.2610 H       1  UNL1        0.1468
     22 C         143.5833  137.9888  161.7195 C.3     1  UNL1        0.0883
     23 C         144.1392  139.3057  162.1742 C.3     1  UNL1        0.0353
     24 C         144.7490  139.4313  163.5390 C.3     1  UNL1        0.0045
     25 C         145.3050  140.7482  163.9937 C.3     1  UNL1        0.0172
     26 C         145.2511  141.9395  163.0836 C.3     1  UNL1        0.0686
     27 N         144.6413  141.8138  161.7190 N.3     1  UNL1       -0.2974
     28 C         144.0854  140.4969  161.2643 C.3     1  UNL1        0.0702
     29 H         145.3638  142.0758  161.0484 H       1  UNL1        0.1232
@<TRIPOS>BOND
     1    17    18    1
     2    18    19    1
     3    18    11    1
     4    11    12   ar
     5    12    13   ar
     6    13    14   ar
     7    14     1    1
     8     1     2   ar
     9     2     3   ar
    10     3    20    1
    11    20    22    1
    12    23    22    1
    13    23    24    1
    14    24    25    1
    15    25    26    1
    16    26    27    1
    17    27    28    1
    18     3     4   ar
    19     4     5   ar
    20     5     6   ar
    21     6     7   ar
    22     7     8   ar
    23     8     9   ar
    24     9    10   ar
    25    14    15   ar
    26    15    16   ar
    27    16    11   ar
    28    10     1   ar
    29    28    23    1
    30     9     4   ar
    31    20    21    1
    32    27    29    1
@<TRIPOS>MOLECULE
*****
 29 32 0 0 0
SMALL
GASTEIGER

@<TRIPOS>ATOM
      1 C         141.6906  144.4929  160.5288 C.ar    1  UNL1        0.0042
      2 C         140.8776  145.0822  161.6431 C.ar    1  UNL1        0.0144
      3 C         141.1226  144.6519  163.0590 C.ar    1  UNL1        0.0461
      4 C         142.1806  143.6322  163.3606 C.ar    1  UNL1        0.0308
      5 C         142.4256  143.2018  164.7765 C.ar    1  UNL1        0.0043
      6 C         143.4835  142.1822  165.0780 C.ar    1  UNL1        0.0207
      7 C         144.2965  141.5928  163.9637 C.ar    1  UNL1        0.0988
      8 N         144.0515  142.0231  162.5478 N.ar    1  UNL1       -0.2438
      9 C         142.9936  143.0428  162.2463 C.ar    1  UNL1        0.0825
     10 C         142.7486  143.4732  160.8303 C.ar    1  UNL1        0.0192
     11 C         140.9557  145.7839  156.2810 C.ar    1  UNL1        0.1318
     12 C         142.1581  144.9515  156.6145 C.ar    1  UNL1        0.0343
     13 C         142.4031  144.5212  158.0304 C.ar    1  UNL1        0.0044
     14 C         141.4456  144.9232  159.1128 C.ar    1  UNL1        0.0194
     15 C         140.2432  145.7556  158.7793 C.ar    1  UNL1        0.1003
     16 N         139.9982  146.1859  157.3634 N.ar    1  UNL1       -0.2292
     17 C         140.9956  145.2706  153.7345 C.3     1  UNL1        0.1136
     18 N         140.7107  146.2143  154.8651 N.pl3   1  UNL1       -0.2897
     19 C         140.1808  147.5882  154.5799 C.3     1  UNL1        0.1136
     20 N         140.3096  145.2412  164.1733 N.pl3   1  UNL1       -0.3326
     21 H         140.7082  145.9148  164.7705 H       1  UNL1        0.1468
     22 C         138.8893  144.8043  164.3777 C.3     1  UNL1        0.0883
     23 C         138.4738  143.4098  164.0134 C.3     1  UNL1        0.0353
     24 C         138.7723  142.2712  164.9432 C.3     1  UNL1        0.0045
     25 C         138.3568  140.8767  164.5789 C.3     1  UNL1        0.0172
     26 C         137.6426  140.6209  163.2848 C.3     1  UNL1        0.0686
     27 N         137.3441  141.7595  162.3551 N.3     1  UNL1       -0.2974
     28 C         137.7597  143.1540  162.7194 C.3     1  UNL1        0.0702
     29 H         136.3323  141.7777  162.2272 H       1  UNL1        0.1232
@<TRIPOS>BOND
     1    17    18    1
     2    18    19    1
     3    18    11    1
     4    11    12   ar
     5    12    13   ar
     6    13    14   ar
     7    14     1    1
     8     1     2   ar
     9     2     3   ar
    10     3    20    1
    11    20    22    1
    12    23    22    1
    13    23    24    1
    14    24    25    1
    15    25    26    1
    16    26    27    1
    17    27    28    1
    18     3     4   ar
    19     4     5   ar
    20     5     6   ar
    21     6     7   ar
    22     7     8   ar
    23     8     9   ar
    24     9    10   ar
    25    14    15   ar
    26    15    16   ar
    27    16    11   ar
    28    10     1   ar
    29    28    23    1
    30     9     4   ar
    31    20    21    1
    32    27    29    1
@<TRIPOS>MOLECULE
*****
 29 32 0 0 0
SMALL
GASTEIGER

@<TRIPOS>ATOM
      1 C         142.9885  141.6584  164.3345 C.ar    1  UNL1        0.0042
      2 C         142.7344  143.1032  164.0216 C.ar    1  UNL1        0.0144
      3 C         142.8379  143.5939  162.6079 C.ar    1  UNL1        0.0461
      4 C         143.1956  142.6398  161.5071 C.ar    1  UNL1        0.0308
      5 C         143.2991  143.1304  160.0934 C.ar    1  UNL1        0.0043
      6 C         143.6568  142.1763  158.9927 C.ar    1  UNL1        0.0207
      7 C         143.9108  140.7315  159.3056 C.ar    1  UNL1        0.0988
      8 N         143.8073  140.2408  160.7193 N.ar    1  UNL1       -0.2438
      9 C         143.4497  141.1949  161.8200 C.ar    1  UNL1        0.0825
     10 C         143.3461  140.7043  163.2337 C.ar    1  UNL1        0.0192
     11 C         142.6777  140.1866  168.5756 C.ar    1  UNL1        0.1318
     12 C         142.7586  141.6581  168.2965 C.ar    1  UNL1        0.0343
     13 C         142.8622  142.1487  166.8828 C.ar    1  UNL1        0.0044
     14 C         142.8849  141.1677  165.7482 C.ar    1  UNL1        0.0194
     15 C         142.8040  139.6962  166.0274 C.ar    1  UNL1        0.1003
     16 N         142.7004  139.2056  167.4410 N.ar    1  UNL1       -0.2292
     17 C         142.1635  140.6380  171.0820 C.3     1  UNL1        0.1136
     18 N         142.5742  139.6959  169.9893 N.pl3   1  UNL1       -0.2897
     19 C         142.8813  138.2632  170.3104 C.3     1  UNL1        0.1136
     20 N         142.5839  145.0388  162.2950 N.pl3   1  UNL1       -0.3326
     21 H         143.2812  145.5773  161.8558 H       1  UNL1        0.1468
     22 C         141.2674  145.6631  162.6513 C.3     1  UNL1        0.0883
     23 C         140.0382  144.8104  162.7610 C.3     1  UNL1        0.0353
     24 C         139.3731  144.6211  164.0921 C.3     1  UNL1        0.0045
     25 C         138.1439  143.7684  164.2018 C.3     1  UNL1        0.0172
     26 C         137.5798  143.1050  162.9803 C.3     1  UNL1        0.0686
     27 N         138.2449  143.2943  161.6493 N.3     1  UNL1       -0.2974
     28 C         139.4741  144.1470  161.5396 C.3     1  UNL1        0.0702
     29 H         137.5473  143.7020  161.0268 H       1  UNL1        0.1232
@<TRIPOS>BOND
     1    17    18    1
     2    18    19    1
     3    18    11    1
     4    11    12   ar
     5    12    13   ar
     6    13    14   ar
     7    14     1    1
     8     1     2   ar
     9     2     3   ar
    10     3    20    1
    11    20    22    1
    12    23    22    1
    13    23    24    1
    14    24    25    1
    15    25    26    1
    16    26    27    1
    17    27    28    1
    18     3     4   ar
    19     4     5   ar
    20     5     6   ar
    21     6     7   ar
    22     7     8   ar
    23     8     9   ar
    24     9    10   ar
    25    14    15   ar
    26    15    16   ar
    27    16    11   ar
    28    10     1   ar
    29    28    23    1
    30     9     4   ar
    31    20    21    1
    32    27    29    1
@<TRIPOS>MOLECULE
*****
 29 32 0 0 0
SMALL
GASTEIGER

@<TRIPOS>ATOM
      1 C         141.3621  139.1745  164.2348 C.ar    1  UNL1        0.0042
      2 C         140.1049  138.6578  163.6006 C.ar    1  UNL1        0.0144
      3 C         140.0450  138.4479  162.1166 C.ar    1  UNL1        0.0461
      4 C         141.2424  138.7548  161.2668 C.ar    1  UNL1        0.0308
      5 C         141.1826  138.5449  159.7828 C.ar    1  UNL1        0.0043
      6 C         142.3799  138.8517  158.9330 C.ar    1  UNL1        0.0207
      7 C         143.6372  139.3685  159.5673 C.ar    1  UNL1        0.0988
      8 N         143.6970  139.5784  161.0513 N.ar    1  UNL1       -0.2438
      9 C         142.4996  139.2715  161.9010 C.ar    1  UNL1        0.0825
     10 C         142.5595  139.4814  163.3851 C.ar    1  UNL1        0.0192
     11 C         141.5417  139.8041  168.6870 C.ar    1  UNL1        0.1318
     12 C         142.7600  139.3397  167.9455 C.ar    1  UNL1        0.0343
     13 C         142.7001  139.1298  166.4615 C.ar    1  UNL1        0.0044
     14 C         141.4219  139.3844  165.7189 C.ar    1  UNL1        0.0194
     15 C         140.2036  139.8489  166.4604 C.ar    1  UNL1        0.1003
     16 N         140.2634  140.0587  167.9444 N.ar    1  UNL1       -0.2292
     17 C         142.9290  140.1431  170.8573 C.3     1  UNL1        0.1136
     18 N         141.6015  140.0140  170.1710 N.pl3   1  UNL1       -0.2897
     19 C         140.3338  140.0948  170.9688 C.3     1  UNL1        0.1136
     20 N         138.7878  137.9311  161.4823 N.pl3   1  UNL1       -0.3326
     21 H         138.7480  137.0045  161.1519 H       1  UNL1        0.1468
     22 C         137.5911  138.8260  161.3514 C.3     1  UNL1        0.0883
     23 C         137.7232  140.2976  161.6101 C.3     1  UNL1        0.0353
     24 C         137.4115  140.8511  162.9690 C.3     1  UNL1        0.0045
     25 C         137.5436  142.3227  163.2277 C.3     1  UNL1        0.0172
     26 C         137.9875  143.2408  162.1276 C.3     1  UNL1        0.0686
     27 N         138.2991  142.6872  160.7688 N.3     1  UNL1       -0.2974
     28 C         138.1670  141.2156  160.5100 C.3     1  UNL1        0.0702
     29 H         139.2668  142.9365  160.5642 H       1  UNL1        0.1232
@<TRIPOS>BOND
     1    17    18    1
     2    18    19    1
     3    18    11    1
     4    11    12   ar
     5    12    13   ar
     6    13    14   ar
     7    14     1    1
     8     1     2   ar
     9     2     3   ar
    10     3    20    1
    11    20    22    1
    12    23    22    1
    13    23    24    1
    14    24    25    1
    15    25    26    1
    16    26    27    1
    17    27    28    1
    18     3     4   ar
    19     4     5   ar
    20     5     6   ar
    21     6     7   ar
    22     7     8   ar
    23     8     9   ar
    24     9    10   ar
    25    14    15   ar
    26    15    16   ar
    27    16    11   ar
    28    10     1   ar
    29    28    23    1
    30     9     4   ar
    31    20    21    1
    32    27    29    1
@<TRIPOS>MOLECULE
*****
 29 32 0 0 0
SMALL
GASTEIGER

@<TRIPOS>ATOM
      1 C         141.0300  142.0370  160.7314 C.ar    1  UNL1        0.0042
      2 C         139.8446  141.1179  160.7330 C.ar    1  UNL1        0.0144
      3 C         138.7441  141.3151  161.7330 C.ar    1  UNL1        0.0461
      4 C         138.8290  142.4314  162.7314 C.ar    1  UNL1        0.0308
      5 C         137.7285  142.6286  163.7313 C.ar    1  UNL1        0.0043
      6 C         137.8135  143.7448  164.7297 C.ar    1  UNL1        0.0207
      7 C         138.9990  144.6639  164.7280 C.ar    1  UNL1        0.0988
      8 N         140.0994  144.4667  163.7280 N.ar    1  UNL1       -0.2438
      9 C         140.0145  143.3505  162.7297 C.ar    1  UNL1        0.0825
     10 C         141.1150  143.1532  161.7297 C.ar    1  UNL1        0.0192
     11 C         144.3315  141.4453  157.7314 C.ar    1  UNL1        0.1318
     12 C         144.5153  142.4052  158.8692 C.ar    1  UNL1        0.0343
     13 C         143.4148  142.6024  159.8692 C.ar    1  UNL1        0.0044
     14 C         142.1306  141.8397  159.7313 C.ar    1  UNL1        0.0194
     15 C         141.9468  140.8798  158.5934 C.ar    1  UNL1        0.1003
     16 N         143.0473  140.6826  157.5935 N.ar    1  UNL1       -0.2292
     17 C         145.3876  140.0834  155.7872 C.3     1  UNL1        0.1136
     18 N         145.4321  141.2481  156.7313 N.pl3   1  UNL1       -0.2897
     19 C         146.5770  142.2155  156.6755 C.3     1  UNL1        0.1136
     20 N         137.5586  140.3960  161.7346 N.pl3   1  UNL1       -0.3326
     21 H         136.6477  140.7675  161.6977 H       1  UNL1        0.1468
     22 C         137.7611  138.9109  161.7925 C.3     1  UNL1        0.0883
     23 C         138.8770  138.3376  162.6148 C.3     1  UNL1        0.0353
     24 C         138.8111  138.3948  164.1123 C.3     1  UNL1        0.0045
     25 C         139.9269  137.8215  164.9346 C.3     1  UNL1        0.0172
     26 C         141.1087  137.1909  164.2593 C.3     1  UNL1        0.0686
     27 N         141.1745  137.1336  162.7619 N.3     1  UNL1       -0.2974
     28 C         140.0587  137.7070  161.9396 C.3     1  UNL1        0.0702
     29 H         141.2514  136.1487  162.5080 H       1  UNL1        0.1232
@<TRIPOS>BOND
     1    17    18    1
     2    18    19    1
     3    18    11    1
     4    11    12   ar
     5    12    13   ar
     6    13    14   ar
     7    14     1    1
     8     1     2   ar
     9     2     3   ar
    10     3    20    1
    11    20    22    1
    12    23    22    1
    13    23    24    1
    14    24    25    1
    15    25    26    1
    16    26    27    1
    17    27    28    1
    18     3     4   ar
    19     4     5   ar
    20     5     6   ar
    21     6     7   ar
    22     7     8   ar
    23     8     9   ar
    24     9    10   ar
    25    14    15   ar
    26    15    16   ar
    27    16    11   ar
    28    10     1   ar
    29    28    23    1
    30     9     4   ar
    31    20    21    1
    32    27    29    1
@<TRIPOS>MOLECULE
*****
 29 32 0 0 0
SMALL
GASTEIGER

@<TRIPOS>ATOM
      1 C         141.8243  143.2626  162.7191 C.ar    1  UNL1        0.0042
      2 C         143.0720  142.4632  162.9517 C.ar    1  UNL1        0.0144
      3 C         143.3722  141.9219  164.3180 C.ar    1  UNL1        0.0461
      4 C         142.4246  142.1801  165.4519 C.ar    1  UNL1        0.0308
      5 C         142.7248  141.6388  166.8182 C.ar    1  UNL1        0.0043
      6 C         141.7773  141.8970  167.9519 C.ar    1  UNL1        0.0207
      7 C         140.5295  142.6964  167.7194 C.ar    1  UNL1        0.0988
      8 N         140.2294  143.2377  166.3531 N.ar    1  UNL1       -0.2438
      9 C         141.1769  142.9795  165.2193 C.ar    1  UNL1        0.0825
     10 C         140.8767  143.5208  163.8529 C.ar    1  UNL1        0.0192
     11 C         140.9239  144.8863  158.6200 C.ar    1  UNL1        0.1318
     12 C         142.1168  144.0018  158.8309 C.ar    1  UNL1        0.0343
     13 C         142.4169  143.4605  160.1973 C.ar    1  UNL1        0.0044
     14 C         141.5241  143.8039  161.3527 C.ar    1  UNL1        0.0194
     15 C         140.3312  144.6884  161.1418 C.ar    1  UNL1        0.1003
     16 N         140.0311  145.2297  159.7755 N.ar    1  UNL1       -0.2292
     17 C         141.2147  144.7720  156.0408 C.3     1  UNL1        0.1136
     18 N         140.6238  145.4276  157.2536 N.pl3   1  UNL1       -0.2897
     19 C         139.7326  146.6244  157.1001 C.3     1  UNL1        0.1136
     20 N         144.6199  141.1225  164.5506 N.pl3   1  UNL1       -0.3326
     21 H         145.3461  141.4929  165.1026 H       1  UNL1        0.1468
     22 C         144.7612  139.7588  163.9421 C.3     1  UNL1        0.0883
     23 C         143.5542  138.8846  163.7720 C.3     1  UNL1        0.0353
     24 C         142.7456  138.4812  164.9694 C.3     1  UNL1        0.0045
     25 C         141.5386  137.6070  164.7994 C.3     1  UNL1        0.0172
     26 C         141.1401  137.1363  163.4320 C.3     1  UNL1        0.0686
     27 N         141.9487  137.5397  162.2347 N.3     1  UNL1       -0.2974
     28 C         143.1557  138.4139  162.4047 C.3     1  UNL1        0.0702
     29 H         141.3156  138.0313  161.6039 H       1  UNL1        0.1232
@<TRIPOS>BOND
     1    17    18    1
     2    18    19    1
     3    18    11    1
     4    11    12   ar
     5    12    13   ar
     6    13    14   ar
     7    14     1    1
     8     1     2   ar
     9     2     3   ar
    10     3    20    1
    11    20    22    1
    12    23    22    1
    13    23    24    1
    14    24    25    1
    15    25    26    1
    16    26    27    1
    17    27    28    1
    18     3     4   ar
    19     4     5   ar
    20     5     6   ar
    21     6     7   ar
    22     7     8   ar
    23     8     9   ar
    24     9    10   ar
    25    14    15   ar
    26    15    16   ar
    27    16    11   ar
    28    10     1   ar
    29    28    23    1
    30     9     4   ar
    31    20    21    1
    32    27    29    1
