@<TRIPOS>MOLECULE
*****
 37 42 0 0 0
SMALL
GASTEIGER

@<TRIPOS>ATOM
      1 C         140.7892  143.8596  160.4124 C.ar    1  UNL1        0.0140
      2 C         140.7283  143.4477  161.8535 C.ar    1  UNL1        0.0011
      3 C         140.8323  141.9980  162.2242 C.ar    1  UNL1        0.0000
      4 C         140.9973  140.9601  161.1539 C.ar    1  UNL1        0.0000
      5 C         141.1014  139.5104  161.5247 C.ar    1  UNL1        0.0000
      6 C         141.2664  138.4726  160.4544 C.ar    1  UNL1       -0.0000
      7 C         141.3273  138.8844  159.0133 C.ar    1  UNL1       -0.0000
      8 C         141.2233  140.3341  158.6426 C.ar    1  UNL1        0.0000
      9 C         141.0583  141.3719  159.7129 C.ar    1  UNL1        0.0000
     10 C         140.9542  142.8217  159.3421 C.ar    1  UNL1        0.0011
     11 C         140.7714  141.5862  163.6653 C.ar    1  UNL1       -0.0000
     12 C         142.0342  141.4712  164.4665 C.ar    1  UNL1       -0.0003
     13 C         141.9733  141.0594  165.9076 C.ar    1  UNL1       -0.0043
     14 C         140.6495  140.7625  166.5475 C.ar    1  UNL1       -0.0224
     15 C         139.3866  140.8775  165.7462 C.ar    1  UNL1       -0.0043
     16 C         139.4475  141.2894  164.3052 C.ar    1  UNL1       -0.0003
     17 C         140.5886  140.3507  167.9885 C.3     1  UNL1        0.0250
     18 C         141.7293  139.8135  168.8010 C.3     1  UNL1        0.0201
     19 C         141.2220  139.5345  170.1847 C.3     1  UNL1        0.0544
     20 C         140.8306  140.0389  168.8274 C.3     1  UNL1        0.0174
     21 C         139.3762  140.4037  168.8702 C.3     1  UNL1        0.0212
     22 C         138.8689  140.1248  170.2539 C.3     1  UNL1        0.0689
     23 N         140.0096  139.5876  171.0663 N.3     1  UNL1       -0.2985
     24 H         139.7846  138.6511  171.4021 H       1  UNL1        0.1232
     25 C         141.4923  137.8464  157.9430 C.ar    1  UNL1       -0.0000
     26 C         140.4222  137.6590  156.9087 C.ar    1  UNL1       -0.0001
     27 C         140.5872  136.6210  155.8384 C.ar    1  UNL1        0.0039
     28 C         141.8224  135.7706  155.8024 C.ar    1  UNL1        0.0714
     29 C         142.8925  135.9581  156.8368 C.ar    1  UNL1        0.0039
     30 C         142.7274  136.9960  157.9070 C.ar    1  UNL1       -0.0001
     31 C         141.9874  134.7327  154.7322 C.3     1  UNL1        0.4186
     32 F         142.1524  133.6948  153.6619 F       1  UNL1       -0.1659
     33 F         142.5972  135.7623  153.8277 F       1  UNL1       -0.1659
     34 F         141.3776  133.7031  155.6366 F       1  UNL1       -0.1659
     35 O         139.6217  146.1673  160.6606 O.co2   1  UNL1       -0.5446
     36 C         140.6851  145.3094  160.0417 C.2     1  UNL1        0.0729
     37 O         141.6445  145.9011  159.0520 O.co2   1  UNL1       -0.5446
@<TRIPOS>UNITY_ATOM_ATTR
35 1
charge -1
@<TRIPOS>BOND
     1    35    36   ar
     2    36    37   ar
     3    36     1    1
     4     1     2   ar
     5     2     3   ar
     6     3    11    1
     7    11    12   ar
     8    12    13   ar
     9    13    14   ar
    10    17    14    1
    11    17    18    1
    12    19    18    1
    13    19    20    1
    14    20    21    1
    15    21    22    1
    16    22    23    1
    17    14    15   ar
    18    15    16   ar
    19     3     4   ar
    20     4     5   ar
    21     5     6   ar
    22     6     7   ar
    23     7    25    1
    24    25    26   ar
    25    26    27   ar
    26    27    28   ar
    27    28    31    1
    28    31    32    1
    29    31    33    1
    30    31    34    1
    31    28    29   ar
    32    29    30   ar
    33     7     8   ar
    34     8     9   ar
    35     9    10   ar
    36    10     1   ar
    37    16    11   ar
    38     9     4   ar
    39    21    17    1
    40    30    25   ar
    41    23    19    1
    42    23    24    1
@<TRIPOS>MOLECULE
*****
 37 42 0 0 0
SMALL
GASTEIGER

@<TRIPOS>ATOM
      1 C         140.4091  144.1186  160.5898 C.ar    1  UNL1        0.0140
      2 C         140.7635  143.7676  162.0044 C.ar    1  UNL1        0.0011
      3 C         141.1634  142.3642  162.3513 C.ar    1  UNL1        0.0000
      4 C         141.2090  141.3116  161.2835 C.ar    1  UNL1        0.0000
      5 C         141.6089  139.9082  161.6304 C.ar    1  UNL1        0.0000
      6 C         141.6544  138.8557  160.5626 C.ar    1  UNL1       -0.0000
      7 C         141.3000  139.2067  159.1480 C.ar    1  UNL1       -0.0000
      8 C         140.9001  140.6101  158.8011 C.ar    1  UNL1        0.0000
      9 C         140.8546  141.6626  159.8689 C.ar    1  UNL1        0.0000
     10 C         140.4546  143.0661  159.5220 C.ar    1  UNL1        0.0011
     11 C         141.5178  142.0132  163.7660 C.ar    1  UNL1       -0.0000
     12 C         140.4409  141.6219  164.7339 C.ar    1  UNL1       -0.0003
     13 C         140.7953  141.2709  166.1486 C.ar    1  UNL1       -0.0043
     14 C         142.2266  141.3113  166.5952 C.ar    1  UNL1       -0.0224
     15 C         143.3037  141.7026  165.6273 C.ar    1  UNL1       -0.0043
     16 C         142.9493  142.0536  164.2126 C.ar    1  UNL1       -0.0003
     17 C         142.5810  140.9603  168.0099 C.3     1  UNL1        0.0250
     18 C         143.1175  141.9045  169.0446 C.3     1  UNL1        0.0201
     19 C         143.3292  141.1313  170.3124 C.3     1  UNL1        0.0544
     20 C         142.8668  141.0256  168.8894 C.3     1  UNL1        0.0174
     21 C         142.4612  139.6035  168.6382 C.3     1  UNL1        0.0212
     22 C         142.6729  138.8303  169.9060 C.3     1  UNL1        0.0689
     23 N         143.2094  139.7745  170.9407 N.3     1  UNL1       -0.2985
     24 H         144.1258  139.4573  171.2568 H       1  UNL1        0.1232
     25 C         141.3456  138.1541  158.0802 C.ar    1  UNL1       -0.0000
     26 C         142.5733  137.3090  157.9120 C.ar    1  UNL1       -0.0001
     27 C         142.6189  136.2564  156.8442 C.ar    1  UNL1        0.0039
     28 C         141.4366  136.0490  155.9446 C.ar    1  UNL1        0.0714
     29 C         140.2088  136.8943  156.1128 C.ar    1  UNL1        0.0039
     30 C         140.1633  137.9467  157.1806 C.ar    1  UNL1       -0.0001
     31 C         141.4821  134.9965  154.8769 C.3     1  UNL1        0.4186
     32 F         141.5276  133.9441  153.8091 F       1  UNL1       -0.1659
     33 F         141.1599  136.0330  153.8415 F       1  UNL1       -0.1659
     34 F         141.8044  133.9601  155.9122 F       1  UNL1       -0.1659
     35 O         140.1737  146.0236  158.8389 O.co2   1  UNL1       -0.5446
     36 C         140.0091  145.5221  160.2429 C.2     1  UNL1        0.0729
     37 O         139.4447  146.4241  161.3002 O.co2   1  UNL1       -0.5446
@<TRIPOS>UNITY_ATOM_ATTR
35 1
charge -1
@<TRIPOS>BOND
     1    35    36   ar
     2    36    37   ar
     3    36     1    1
     4     1     2   ar
     5     2     3   ar
     6     3    11    1
     7    11    12   ar
     8    12    13   ar
     9    13    14   ar
    10    17    14    1
    11    17    18    1
    12    19    18    1
    13    19    20    1
    14    20    21    1
    15    21    22    1
    16    22    23    1
    17    14    15   ar
    18    15    16   ar
    19     3     4   ar
    20     4     5   ar
    21     5     6   ar
    22     6     7   ar
    23     7    25    1
    24    25    26   ar
    25    26    27   ar
    26    27    28   ar
    27    28    31    1
    28    31    32    1
    29    31    33    1
    30    31    34    1
    31    28    29   ar
    32    29    30   ar
    33     7     8   ar
    34     8     9   ar
    35     9    10   ar
    36    10     1   ar
    37    16    11   ar
    38     9     4   ar
    39    21    17    1
    40    30    25   ar
    41    23    19    1
    42    23    24    1
@<TRIPOS>MOLECULE
*****
 37 42 0 0 0
SMALL
GASTEIGER

@<TRIPOS>ATOM
      1 C         139.1051  140.5842  159.7766 C.ar    1  UNL1        0.0140
      2 C         139.3485  140.8611  161.2306 C.ar    1  UNL1        0.0011
      3 C         140.7140  141.2699  161.6978 C.ar    1  UNL1        0.0000
      4 C         141.8361  141.4018  160.7111 C.ar    1  UNL1        0.0000
      5 C         143.2015  141.8106  161.1783 C.ar    1  UNL1        0.0000
      6 C         144.3235  141.9425  160.1916 C.ar    1  UNL1       -0.0000
      7 C         144.0801  141.6655  158.7376 C.ar    1  UNL1       -0.0000
      8 C         142.7146  141.2567  158.2704 C.ar    1  UNL1        0.0000
      9 C         141.5926  141.1249  159.2571 C.ar    1  UNL1        0.0000
     10 C         140.2271  140.7160  158.7899 C.ar    1  UNL1        0.0011
     11 C         140.9574  141.5469  163.1518 C.ar    1  UNL1       -0.0000
     12 C         140.8243  142.9438  163.6817 C.ar    1  UNL1       -0.0003
     13 C         141.0678  143.2207  165.1357 C.ar    1  UNL1       -0.0043
     14 C         141.4443  142.1008  166.0597 C.ar    1  UNL1       -0.0224
     15 C         141.5774  140.7038  165.5298 C.ar    1  UNL1       -0.0043
     16 C         141.3339  140.4268  164.0758 C.ar    1  UNL1       -0.0003
     17 C         141.6877  142.3777  167.5137 C.3     1  UNL1        0.0250
     18 C         142.9890  142.2021  168.2389 C.3     1  UNL1        0.0201
     19 C         142.7782  142.5948  169.6712 C.3     1  UNL1        0.0544
     20 C         142.1043  142.4606  168.3378 C.3     1  UNL1        0.0174
     21 C         140.6727  142.8789  168.4978 C.3     1  UNL1        0.0212
     22 C         140.4619  143.2716  169.9301 C.3     1  UNL1        0.0689
     23 N         141.7631  143.0959  170.6552 N.3     1  UNL1       -0.2985
     24 H         141.6500  142.4198  171.4104 H       1  UNL1        0.1232
     25 C         145.2022  141.7974  157.7509 C.ar    1  UNL1       -0.0000
     26 C         145.2045  140.9663  156.5023 C.ar    1  UNL1       -0.0001
     27 C         146.3266  141.0981  155.5155 C.ar    1  UNL1        0.0039
     28 C         147.4463  142.0612  155.7775 C.ar    1  UNL1        0.0714
     29 C         147.4440  142.8924  157.0262 C.ar    1  UNL1        0.0039
     30 C         146.3219  142.7605  158.0128 C.ar    1  UNL1       -0.0001
     31 C         148.5684  142.1931  154.7908 C.3     1  UNL1        0.4186
     32 F         149.6904  142.3251  153.8042 F       1  UNL1       -0.1659
     33 F         149.3958  141.2429  155.6047 F       1  UNL1       -0.1659
     34 F         147.7410  143.1434  153.9770 F       1  UNL1       -0.1659
     35 O         137.3193  140.4439  157.8947 O.co2   1  UNL1       -0.5446
     36 C         137.7395  140.1753  159.3094 C.2     1  UNL1        0.0729
     37 O         136.7943  139.4979  160.2568 O.co2   1  UNL1       -0.5446
@<TRIPOS>UNITY_ATOM_ATTR
35 1
charge -1
@<TRIPOS>BOND
     1    35    36   ar
     2    36    37   ar
     3    36     1    1
     4     1     2   ar
     5     2     3   ar
     6     3    11    1
     7    11    12   ar
     8    12    13   ar
     9    13    14   ar
    10    17    14    1
    11    17    18    1
    12    19    18    1
    13    19    20    1
    14    20    21    1
    15    21    22    1
    16    22    23    1
    17    14    15   ar
    18    15    16   ar
    19     3     4   ar
    20     4     5   ar
    21     5     6   ar
    22     6     7   ar
    23     7    25    1
    24    25    26   ar
    25    26    27   ar
    26    27    28   ar
    27    28    31    1
    28    31    32    1
    29    31    33    1
    30    31    34    1
    31    28    29   ar
    32    29    30   ar
    33     7     8   ar
    34     8     9   ar
    35     9    10   ar
    36    10     1   ar
    37    16    11   ar
    38     9     4   ar
    39    21    17    1
    40    30    25   ar
    41    23    19    1
    42    23    24    1
@<TRIPOS>MOLECULE
*****
 37 42 0 0 0
SMALL
GASTEIGER

@<TRIPOS>ATOM
      1 C         141.0068  143.6026  159.9730 C.ar    1  UNL1        0.0140
      2 C         141.1296  142.3924  159.0954 C.ar    1  UNL1        0.0011
      3 C         141.1162  141.0210  159.7027 C.ar    1  UNL1        0.0000
      4 C         140.9798  140.8597  161.1879 C.ar    1  UNL1        0.0000
      5 C         140.9664  139.4883  161.7952 C.ar    1  UNL1        0.0000
      6 C         140.8300  139.3271  163.2803 C.ar    1  UNL1       -0.0000
      7 C         140.7072  140.5373  164.1579 C.ar    1  UNL1       -0.0000
      8 C         140.7206  141.9087  163.5505 C.ar    1  UNL1        0.0000
      9 C         140.8570  142.0699  162.0655 C.ar    1  UNL1        0.0000
     10 C         140.8704  143.4414  161.4580 C.ar    1  UNL1        0.0011
     11 C         141.2390  139.8108  158.8251 C.ar    1  UNL1       -0.0000
     12 C         142.5951  139.2965  158.4423 C.ar    1  UNL1       -0.0003
     13 C         142.7180  138.0863  157.5646 C.ar    1  UNL1       -0.0043
     14 C         141.4848  137.3903  157.0698 C.ar    1  UNL1       -0.0224
     15 C         140.1286  137.9046  157.4526 C.ar    1  UNL1       -0.0043
     16 C         140.0058  139.1148  158.3303 C.ar    1  UNL1       -0.0003
     17 C         141.6077  136.1801  156.1921 C.3     1  UNL1        0.0250
     18 C         140.8642  135.9404  154.9116 C.3     1  UNL1        0.0201
     19 C         141.2926  134.6093  154.3690 C.3     1  UNL1        0.0544
     20 C         141.4873  135.5801  155.4957 C.3     1  UNL1        0.0174
     21 C         142.4956  134.9970  156.4409 C.3     1  UNL1        0.0212
     22 C         142.9240  133.6658  155.8983 C.3     1  UNL1        0.0689
     23 N         142.1805  133.4263  154.6178 N.3     1  UNL1       -0.2985
     24 H         141.6159  132.5806  154.6984 H       1  UNL1        0.1232
     25 C         140.5708  140.3760  165.6430 C.ar    1  UNL1       -0.0000
     26 C         139.2495  139.9872  166.2371 C.ar    1  UNL1       -0.0001
     27 C         139.1132  139.8259  167.7222 C.ar    1  UNL1        0.0039
     28 C         140.2982  140.0535  168.6132 C.ar    1  UNL1        0.0714
     29 C         141.6195  140.4424  168.0191 C.ar    1  UNL1        0.0039
     30 C         141.7558  140.6037  166.5341 C.ar    1  UNL1       -0.0001
     31 C         140.1619  139.8923  170.0982 C.3     1  UNL1        0.4186
     32 F         140.0256  139.7311  171.5833 F       1  UNL1       -0.1659
     33 F         138.8985  140.7004  170.0700 F       1  UNL1       -0.1659
     34 F         141.4253  139.0842  170.1264 F       1  UNL1       -0.1659
     35 O         139.8320  145.8758  159.5230 O.co2   1  UNL1       -0.5446
     36 C         141.0203  144.9741  159.3656 C.2     1  UNL1        0.0729
     37 O         142.2221  145.4438  158.6007 O.co2   1  UNL1       -0.5446
@<TRIPOS>UNITY_ATOM_ATTR
35 1
charge -1
@<TRIPOS>BOND
     1    35    36   ar
     2    36    37   ar
     3    36     1    1
     4     1     2   ar
     5     2     3   ar
     6     3    11    1
     7    11    12   ar
     8    12    13   ar
     9    13    14   ar
    10    17    14    1
    11    17    18    1
    12    19    18    1
    13    19    20    1
    14    20    21    1
    15    21    22    1
    16    22    23    1
    17    14    15   ar
    18    15    16   ar
    19     3     4   ar
    20     4     5   ar
    21     5     6   ar
    22     6     7   ar
    23     7    25    1
    24    25    26   ar
    25    26    27   ar
    26    27    28   ar
    27    28    31    1
    28    31    32    1
    29    31    33    1
    30    31    34    1
    31    28    29   ar
    32    29    30   ar
    33     7     8   ar
    34     8     9   ar
    35     9    10   ar
    36    10     1   ar
    37    16    11   ar
    38     9     4   ar
    39    21    17    1
    40    30    25   ar
    41    23    19    1
    42    23    24    1
@<TRIPOS>MOLECULE
*****
 37 42 0 0 0
SMALL
GASTEIGER

@<TRIPOS>ATOM
      1 C         143.0984  142.8858  164.5910 C.ar    1  UNL1        0.0140
      2 C         142.9626  142.1270  163.3042 C.ar    1  UNL1        0.0011
      3 C         141.9760  141.0022  163.1974 C.ar    1  UNL1        0.0000
      4 C         141.1251  140.6362  164.3773 C.ar    1  UNL1        0.0000
      5 C         140.1385  139.5114  164.2705 C.ar    1  UNL1        0.0000
      6 C         139.2878  139.1454  165.4504 C.ar    1  UNL1       -0.0000
      7 C         139.4236  139.9042  166.7371 C.ar    1  UNL1       -0.0000
      8 C         140.4102  141.0290  166.8440 C.ar    1  UNL1        0.0000
      9 C         141.2610  141.3950  165.6641 C.ar    1  UNL1        0.0000
     10 C         142.2476  142.5198  165.7709 C.ar    1  UNL1        0.0011
     11 C         141.8401  140.2434  161.9106 C.ar    1  UNL1       -0.0000
     12 C         140.9598  140.7724  160.8174 C.ar    1  UNL1       -0.0003
     13 C         140.8239  140.0136  159.5306 C.ar    1  UNL1       -0.0043
     14 C         141.5684  138.7259  159.3371 C.ar    1  UNL1       -0.0224
     15 C         142.4488  138.1969  160.4303 C.ar    1  UNL1       -0.0043
     16 C         142.5847  138.9557  161.7171 C.ar    1  UNL1       -0.0003
     17 C         141.4326  137.9671  158.0503 C.3     1  UNL1        0.0250
     18 C         142.5372  137.2590  157.3234 C.3     1  UNL1        0.0201
     19 C         141.9556  136.6374  156.0883 C.3     1  UNL1        0.0544
     20 C         141.6324  137.4592  157.3009 C.3     1  UNL1        0.0174
     21 C         140.1683  137.7832  157.2644 C.3     1  UNL1        0.0212
     22 C         139.5866  137.1616  156.0293 C.3     1  UNL1        0.0689
     23 N         140.6913  136.4536  155.3025 N.3     1  UNL1       -0.2985
     24 H         140.8025  136.8512  154.3699 H       1  UNL1        0.1232
     25 C         138.5728  139.5382  167.9171 C.ar    1  UNL1       -0.0000
     26 C         138.8109  140.1930  169.2454 C.ar    1  UNL1       -0.0001
     27 C         137.9601  139.8270  170.4253 C.ar    1  UNL1        0.0039
     28 C         136.8712  138.8061  170.2769 C.ar    1  UNL1        0.0714
     29 C         136.6331  138.1512  168.9485 C.ar    1  UNL1        0.0039
     30 C         137.4839  138.5173  167.7686 C.ar    1  UNL1       -0.0001
     31 C         136.0204  138.4400  171.4567 C.3     1  UNL1        0.4186
     32 F         135.1696  138.0740  172.6366 F       1  UNL1       -0.1659
     33 F         135.7149  139.8905  171.6864 F       1  UNL1       -0.1659
     34 F         136.3259  136.9896  171.2270 F       1  UNL1       -0.1659
     35 O         144.0943  145.1006  163.6674 O.co2   1  UNL1       -0.5446
     36 C         144.0851  144.0106  164.6979 C.2     1  UNL1        0.0729
     37 O         145.0625  144.0454  165.8352 O.co2   1  UNL1       -0.5446
@<TRIPOS>UNITY_ATOM_ATTR
35 1
charge -1
@<TRIPOS>BOND
     1    35    36   ar
     2    36    37   ar
     3    36     1    1
     4     1     2   ar
     5     2     3   ar
     6     3    11    1
     7    11    12   ar
     8    12    13   ar
     9    13    14   ar
    10    17    14    1
    11    17    18    1
    12    19    18    1
    13    19    20    1
    14    20    21    1
    15    21    22    1
    16    22    23    1
    17    14    15   ar
    18    15    16   ar
    19     3     4   ar
    20     4     5   ar
    21     5     6   ar
    22     6     7   ar
    23     7    25    1
    24    25    26   ar
    25    26    27   ar
    26    27    28   ar
    27    28    31    1
    28    31    32    1
    29    31    33    1
    30    31    34    1
    31    28    29   ar
    32    29    30   ar
    33     7     8   ar
    34     8     9   ar
    35     9    10   ar
    36    10     1   ar
    37    16    11   ar
    38     9     4   ar
    39    21    17    1
    40    30    25   ar
    41    23    19    1
    42    23    24    1
@<TRIPOS>MOLECULE
*****
 37 42 0 0 0
SMALL
GASTEIGER

@<TRIPOS>ATOM
      1 C         142.3475  142.2710  158.3463 C.ar    1  UNL1        0.0140
      2 C         142.2940  140.9940  157.5612 C.ar    1  UNL1        0.0011
      3 C         141.8125  139.7321  158.2136 C.ar    1  UNL1        0.0000
      4 C         141.3845  139.7471  159.6512 C.ar    1  UNL1        0.0000
      5 C         140.9030  138.4852  160.3036 C.ar    1  UNL1        0.0000
      6 C         140.4751  138.5003  161.7412 C.ar    1  UNL1       -0.0000
      7 C         140.5286  139.7773  162.5263 C.ar    1  UNL1       -0.0000
      8 C         141.0101  141.0392  161.8739 C.ar    1  UNL1        0.0000
      9 C         141.4380  141.0241  160.4363 C.ar    1  UNL1        0.0000
     10 C         141.9196  142.2861  159.7838 C.ar    1  UNL1        0.0011
     11 C         141.7590  138.4551  157.4285 C.ar    1  UNL1       -0.0000
     12 C         142.9645  137.5650  157.3611 C.ar    1  UNL1       -0.0003
     13 C         142.9109  136.2880  156.5759 C.ar    1  UNL1       -0.0043
     14 C         141.6519  135.9011  155.8583 C.ar    1  UNL1       -0.0224
     15 C         140.4464  136.7911  155.9257 C.ar    1  UNL1       -0.0043
     16 C         140.4999  138.0681  156.7108 C.ar    1  UNL1       -0.0003
     17 C         141.5984  134.6241  155.0731 C.3     1  UNL1        0.0250
     18 C         141.5149  134.5100  153.5798 C.3     1  UNL1        0.0201
     19 C         141.4838  133.0524  153.2272 C.3     1  UNL1        0.0544
     20 C         141.5546  134.0237  154.3680 C.3     1  UNL1        0.0174
     21 C         141.6190  133.2369  155.6435 C.3     1  UNL1        0.0212
     22 C         141.5880  131.7793  155.2909 C.3     1  UNL1        0.0689
     23 N         141.5045  131.6653  153.7976 N.3     1  UNL1       -0.2985
     24 H         140.6519  131.1705  153.5354 H       1  UNL1        0.1232
     25 C         140.1006  139.7924  163.9639 C.ar    1  UNL1       -0.0000
     26 C         138.6933  139.4257  164.3314 C.ar    1  UNL1       -0.0001
     27 C         138.2653  139.4408  165.7690 C.ar    1  UNL1        0.0039
     28 C         139.2447  139.8225  166.8391 C.ar    1  UNL1        0.0714
     29 C         140.6521  140.1891  166.4716 C.ar    1  UNL1        0.0039
     30 C         141.0800  140.1740  165.0340 C.ar    1  UNL1       -0.0001
     31 C         138.8168  139.8375  168.2767 C.3     1  UNL1        0.4186
     32 F         138.3889  139.8526  169.7142 F       1  UNL1       -0.1659
     33 F         137.6638  138.9380  167.9429 F       1  UNL1       -0.1659
     34 F         139.9698  140.7370  168.6104 F       1  UNL1       -0.1659
     35 O         142.6382  144.8525  158.3809 O.co2   1  UNL1       -0.5446
     36 C         142.8290  143.5329  157.6938 C.2     1  UNL1        0.0729
     37 O         143.5014  143.4752  156.3541 O.co2   1  UNL1       -0.5446
@<TRIPOS>UNITY_ATOM_ATTR
35 1
charge -1
@<TRIPOS>BOND
     1    35    36   ar
     2    36    37   ar
     3    36     1    1
     4     1     2   ar
     5     2     3   ar
     6     3    11    1
     7    11    12   ar
     8    12    13   ar
     9    13    14   ar
    10    17    14    1
    11    17    18    1
    12    19    18    1
    13    19    20    1
    14    20    21    1
    15    21    22    1
    16    22    23    1
    17    14    15   ar
    18    15    16   ar
    19     3     4   ar
    20     4     5   ar
    21     5     6   ar
    22     6     7   ar
    23     7    25    1
    24    25    26   ar
    25    26    27   ar
    26    27    28   ar
    27    28    31    1
    28    31    32    1
    29    31    33    1
    30    31    34    1
    31    28    29   ar
    32    29    30   ar
    33     7     8   ar
    34     8     9   ar
    35     9    10   ar
    36    10     1   ar
    37    16    11   ar
    38     9     4   ar
    39    21    17    1
    40    30    25   ar
    41    23    19    1
    42    23    24    1
@<TRIPOS>MOLECULE
*****
 37 42 0 0 0
SMALL
GASTEIGER

@<TRIPOS>ATOM
      1 C         139.3675  137.7570  155.2714 C.ar    1  UNL1        0.0140
      2 C         140.0348  138.4637  156.4140 C.ar    1  UNL1        0.0011
      3 C         141.2399  137.8574  157.0698 C.ar    1  UNL1        0.0000
      4 C         141.7779  136.5445  156.5830 C.ar    1  UNL1        0.0000
      5 C         142.9830  135.9383  157.2387 C.ar    1  UNL1        0.0000
      6 C         143.5209  134.6254  156.7520 C.ar    1  UNL1       -0.0000
      7 C         142.8537  133.9188  155.6094 C.ar    1  UNL1       -0.0000
      8 C         141.6485  134.5250  154.9536 C.ar    1  UNL1        0.0000
      9 C         141.1106  135.8378  155.4404 C.ar    1  UNL1        0.0000
     10 C         139.9054  136.4441  154.7847 C.ar    1  UNL1        0.0011
     11 C         141.9072  138.5641  158.2123 C.ar    1  UNL1       -0.0000
     12 C         143.1174  139.4147  157.9640 C.ar    1  UNL1       -0.0003
     13 C         143.7847  140.1213  159.1066 C.ar    1  UNL1       -0.0043
     14 C         143.2417  139.9774  160.4974 C.ar    1  UNL1       -0.0224
     15 C         142.0313  139.1268  160.7457 C.ar    1  UNL1       -0.0043
     16 C         141.3641  138.4201  159.6032 C.ar    1  UNL1       -0.0003
     17 C         143.9089  140.6841  161.6399 C.3     1  UNL1        0.0250
     18 C         144.6502  140.0309  162.7686 C.3     1  UNL1        0.0201
     19 C         145.1515  141.1111  163.6806 C.3     1  UNL1        0.0544
     20 C         144.3836  140.8471  162.4194 C.3     1  UNL1        0.0174
     21 C         143.9521  142.1680  161.8545 C.3     1  UNL1        0.0212
     22 C         144.4534  143.2482  162.7665 C.3     1  UNL1        0.0689
     23 N         145.1946  142.5950  163.8951 N.3     1  UNL1       -0.2985
     24 H         144.7502  142.8295  164.7827 H       1  UNL1        0.1232
     25 C         143.3916  132.6058  155.1226 C.ar    1  UNL1       -0.0000
     26 C         144.3526  131.8278  155.9719 C.ar    1  UNL1       -0.0001
     27 C         144.8905  130.5149  155.4851 C.ar    1  UNL1        0.0039
     28 C         144.4675  129.9800  154.1491 C.ar    1  UNL1        0.0714
     29 C         143.5065  130.7581  153.2998 C.ar    1  UNL1        0.0039
     30 C         142.9686  132.0710  153.7866 C.ar    1  UNL1       -0.0001
     31 C         145.0054  128.6672  153.6623 C.3     1  UNL1        0.4186
     32 F         145.5433  127.3543  153.1755 F       1  UNL1       -0.1659
     33 F         145.6109  128.4151  155.0112 F       1  UNL1       -0.1659
     34 F         144.3999  128.9193  152.3133 F       1  UNL1       -0.1659
     35 O         138.3291  139.4675  153.6143 O.co2   1  UNL1       -0.5446
     36 C         138.1623  138.3633  154.6157 C.2     1  UNL1        0.0729
     37 O         136.7902  137.8653  154.9614 O.co2   1  UNL1       -0.5446
@<TRIPOS>UNITY_ATOM_ATTR
35 1
charge -1
@<TRIPOS>BOND
     1    35    36   ar
     2    36    37   ar
     3    36     1    1
     4     1     2   ar
     5     2     3   ar
     6     3    11    1
     7    11    12   ar
     8    12    13   ar
     9    13    14   ar
    10    17    14    1
    11    17    18    1
    12    19    18    1
    13    19    20    1
    14    20    21    1
    15    21    22    1
    16    22    23    1
    17    14    15   ar
    18    15    16   ar
    19     3     4   ar
    20     4     5   ar
    21     5     6   ar
    22     6     7   ar
    23     7    25    1
    24    25    26   ar
    25    26    27   ar
    26    27    28   ar
    27    28    31    1
    28    31    32    1
    29    31    33    1
    30    31    34    1
    31    28    29   ar
    32    29    30   ar
    33     7     8   ar
    34     8     9   ar
    35     9    10   ar
    36    10     1   ar
    37    16    11   ar
    38     9     4   ar
    39    21    17    1
    40    30    25   ar
    41    23    19    1
    42    23    24    1
@<TRIPOS>MOLECULE
*****
 37 42 0 0 0
SMALL
GASTEIGER

@<TRIPOS>ATOM
      1 C         141.2150  144.1390  158.8850 C.ar    1  UNL1        0.0140
      2 C         141.0397  143.9670  160.3647 C.ar    1  UNL1        0.0011
      3 C         141.0274  142.5919  160.9637 C.ar    1  UNL1        0.0000
      4 C         141.1904  141.3887  160.0829 C.ar    1  UNL1        0.0000
      5 C         141.1781  140.0135  160.6819 C.ar    1  UNL1        0.0000
      6 C         141.3411  138.8104  159.8011 C.ar    1  UNL1       -0.0000
      7 C         141.5164  138.9824  158.3213 C.ar    1  UNL1       -0.0000
      8 C         141.5287  140.3575  157.7223 C.ar    1  UNL1        0.0000
      9 C         141.3657  141.5607  158.6031 C.ar    1  UNL1        0.0000
     10 C         141.3779  142.9359  158.0042 C.ar    1  UNL1        0.0011
     11 C         140.8522  142.4199  162.4435 C.ar    1  UNL1       -0.0000
     12 C         139.4745  142.3383  163.0311 C.ar    1  UNL1       -0.0003
     13 C         139.2993  142.1663  164.5108 C.ar    1  UNL1       -0.0043
     14 C         140.5017  142.0759  165.4030 C.ar    1  UNL1       -0.0224
     15 C         141.8794  142.1576  164.8154 C.ar    1  UNL1       -0.0043
     16 C         142.0547  142.3296  163.3356 C.ar    1  UNL1       -0.0003
     17 C         140.3264  141.9039  166.8827 C.3     1  UNL1        0.0250
     18 C         140.6177  142.9366  167.9310 C.3     1  UNL1        0.0201
     19 C         140.3004  142.3400  169.2702 C.3     1  UNL1        0.0544
     20 C         140.3165  142.0705  167.7947 C.3     1  UNL1        0.0174
     21 C         139.8291  140.6691  167.5741 C.3     1  UNL1        0.0212
     22 C         139.5119  140.0725  168.9133 C.3     1  UNL1        0.0689
     23 N         139.8031  141.1052  169.9615 N.3     1  UNL1       -0.2985
     24 H         140.5159  140.7564  170.6023 H       1  UNL1        0.1232
     25 C         141.6794  137.7792  157.4405 C.ar    1  UNL1       -0.0000
     26 C         142.8587  136.8704  157.6229 C.ar    1  UNL1       -0.0001
     27 C         143.0216  135.6671  156.7421 C.ar    1  UNL1        0.0039
     28 C         142.0053  135.3728  155.6789 C.ar    1  UNL1        0.0714
     29 C         140.8259  136.2816  155.4965 C.ar    1  UNL1        0.0039
     30 C         140.6630  137.4848  156.3773 C.ar    1  UNL1       -0.0001
     31 C         142.1682  134.1696  154.7981 C.3     1  UNL1        0.4186
     32 F         142.3312  132.9664  153.9174 F       1  UNL1       -0.1659
     33 F         140.8042  134.4072  154.2213 F       1  UNL1       -0.1659
     34 F         143.5323  133.9320  155.3750 F       1  UNL1       -0.1659
     35 O         142.5323  146.1969  158.0018 O.co2   1  UNL1       -0.5446
     36 C         141.2272  145.5143  158.2860 C.2     1  UNL1        0.0729
     37 O         139.9344  146.2067  157.9712 O.co2   1  UNL1       -0.5446
@<TRIPOS>UNITY_ATOM_ATTR
35 1
charge -1
@<TRIPOS>BOND
     1    35    36   ar
     2    36    37   ar
     3    36     1    1
     4     1     2   ar
     5     2     3   ar
     6     3    11    1
     7    11    12   ar
     8    12    13   ar
     9    13    14   ar
    10    17    14    1
    11    17    18    1
    12    19    18    1
    13    19    20    1
    14    20    21    1
    15    21    22    1
    16    22    23    1
    17    14    15   ar
    18    15    16   ar
    19     3     4   ar
    20     4     5   ar
    21     5     6   ar
    22     6     7   ar
    23     7    25    1
    24    25    26   ar
    25    26    27   ar
    26    27    28   ar
    27    28    31    1
    28    31    32    1
    29    31    33    1
    30    31    34    1
    31    28    29   ar
    32    29    30   ar
    33     7     8   ar
    34     8     9   ar
    35     9    10   ar
    36    10     1   ar
    37    16    11   ar
    38     9     4   ar
    39    21    17    1
    40    30    25   ar
    41    23    19    1
    42    23    24    1
@<TRIPOS>MOLECULE
*****
 37 42 0 0 0
SMALL
GASTEIGER

@<TRIPOS>ATOM
      1 C         145.4255  140.8688  154.5972 C.ar    1  UNL1        0.0140
      2 C         144.7602  141.6665  155.6794 C.ar    1  UNL1        0.0011
      3 C         143.8704  140.9836  156.6753 C.ar    1  UNL1        0.0000
      4 C         143.6457  139.5030  156.5890 C.ar    1  UNL1        0.0000
      5 C         142.7559  138.8201  157.5849 C.ar    1  UNL1        0.0000
      6 C         142.5314  137.3396  157.4987 C.ar    1  UNL1       -0.0000
      7 C         143.1966  136.5419  156.4165 C.ar    1  UNL1       -0.0000
      8 C         144.0864  137.2247  155.4206 C.ar    1  UNL1        0.0000
      9 C         144.3110  138.7053  155.5069 C.ar    1  UNL1        0.0000
     10 C         145.2009  139.3882  154.5109 C.ar    1  UNL1        0.0011
     11 C         143.2051  141.7813  157.7574 C.ar    1  UNL1       -0.0000
     12 C         143.9472  142.0937  159.0230 C.ar    1  UNL1       -0.0003
     13 C         143.2820  142.8914  160.1051 C.ar    1  UNL1       -0.0043
     14 C         141.8746  143.3767  159.9218 C.ar    1  UNL1       -0.0224
     15 C         141.1323  143.0643  158.6562 C.ar    1  UNL1       -0.0043
     16 C         141.7976  142.2666  157.5740 C.ar    1  UNL1       -0.0003
     17 C         141.2093  144.1744  161.0040 C.3     1  UNL1        0.0250
     18 C         140.5129  145.4911  160.8274 C.3     1  UNL1        0.0201
     19 C         139.9968  145.9260  162.1670 C.3     1  UNL1        0.0544
     20 C         140.7462  144.8435  161.4482 C.3     1  UNL1        0.0174
     21 C         141.1237  143.7955  162.4528 C.3     1  UNL1        0.0212
     22 C         140.6076  144.2303  163.7924 C.3     1  UNL1        0.0689
     23 N         139.9112  145.5470  163.6157 N.3     1  UNL1       -0.2985
     24 H         140.3664  146.2587  164.1872 H       1  UNL1        0.1232
     25 C         142.9720  135.0613  156.3302 C.ar    1  UNL1       -0.0000
     26 C         142.0498  134.5020  155.2878 C.ar    1  UNL1       -0.0001
     27 C         141.8251  133.0214  155.2016 C.ar    1  UNL1        0.0039
     28 C         142.5228  132.1001  156.1578 C.ar    1  UNL1        0.0714
     29 C         143.4451  132.6594  157.2003 C.ar    1  UNL1        0.0039
     30 C         143.6697  134.1399  157.2865 C.ar    1  UNL1       -0.0001
     31 C         142.2983  130.6195  156.0716 C.3     1  UNL1        0.4186
     32 F         142.0737  129.1390  155.9854 F       1  UNL1       -0.1659
     33 F         141.0193  130.8570  155.3249 F       1  UNL1       -0.1659
     34 F         143.5773  130.3820  156.8184 F       1  UNL1       -0.1659
     35 O         147.7343  141.8770  153.9626 O.co2   1  UNL1       -0.5446
     36 C         146.3153  141.5517  153.6013 C.2     1  UNL1        0.0729
     37 O         145.7861  141.9093  152.2440 O.co2   1  UNL1       -0.5446
@<TRIPOS>UNITY_ATOM_ATTR
35 1
charge -1
@<TRIPOS>BOND
     1    35    36   ar
     2    36    37   ar
     3    36     1    1
     4     1     2   ar
     5     2     3   ar
     6     3    11    1
     7    11    12   ar
     8    12    13   ar
     9    13    14   ar
    10    17    14    1
    11    17    18    1
    12    19    18    1
    13    19    20    1
    14    20    21    1
    15    21    22    1
    16    22    23    1
    17    14    15   ar
    18    15    16   ar
    19     3     4   ar
    20     4     5   ar
    21     5     6   ar
    22     6     7   ar
    23     7    25    1
    24    25    26   ar
    25    26    27   ar
    26    27    28   ar
    27    28    31    1
    28    31    32    1
    29    31    33    1
    30    31    34    1
    31    28    29   ar
    32    29    30   ar
    33     7     8   ar
    34     8     9   ar
    35     9    10   ar
    36    10     1   ar
    37    16    11   ar
    38     9     4   ar
    39    21    17    1
    40    30    25   ar
    41    23    19    1
    42    23    24    1
