@<TRIPOS>MOLECULE
*****
 41 44 0 0 0
SMALL
GASTEIGER

@<TRIPOS>ATOM
      1 C         144.2277  141.5472  163.4971 C.3     1  UNL1        0.1017
      2 C         144.4498  142.9595  163.0432 C.3     1  UNL1        0.0394
      3 C         144.5462  143.2703  161.5788 C.3     1  UNL1        0.0740
      4 N         144.4205  142.1688  160.5685 N.3     1  UNL1       -0.2701
      5 C         144.1984  140.7565  161.0224 C.3     1  UNL1        0.1037
      6 C         144.1020  140.4457  162.4866 C.3     1  UNL1        0.1490
      7 C         142.9231  141.6637  165.7408 C.2     1  UNL1        0.2488
      8 O         141.8113  142.4019  165.0561 O.2     1  UNL1       -0.2700
      9 N         144.1313  141.2363  164.9613 N.am    1  UNL1       -0.2999
     10 H         144.8611  140.7518  165.4107 H       1  UNL1        0.1498
     11 C         142.6608  139.9336  167.6612 C.ar    1  UNL1        0.1443
     12 C         142.5645  139.6227  169.1254 C.ar    1  UNL1        0.0520
     13 C         142.6341  140.7312  170.1336 C.ar    1  UNL1        0.0553
     14 N         142.5378  140.4203  171.5980 N.pl3   1  UNL1       -0.3563
     15 C         142.8001  142.1505  169.6776 C.ar    1  UNL1        0.0709
     16 CL        142.8698  143.2590  170.6858 Cl      1  UNL1       -0.0810
     17 C         142.8964  142.4613  168.2133 C.ar    1  UNL1        0.0202
     18 C         142.8268  141.3528  167.2051 C.ar    1  UNL1        0.0882
     19 H         142.4289  139.4888  171.8973 H       1  UNL1        0.1424
     20 H         142.5835  141.1479  172.2597 H       1  UNL1        0.1424
     21 C         143.7986  137.9755  166.3878 C.3     1  UNL1        0.2525
     22 O         142.5912  138.8251  166.6530 O.3     1  UNL1       -0.4712
     23 O         143.8800  139.0333  162.9405 O.3     1  UNL1       -0.3505
     24 C         142.5021  138.4417  162.9042 C.3     1  UNL1        0.1741
     25 C         144.5168  142.4797  159.1043 C.3     1  UNL1        0.0818
     26 C         143.2834  142.8432  158.3319 C.3     1  UNL1        0.1026
     27 C         142.1745  143.5991  159.0021 C.2     1  UNL1        0.2270
     28 O         142.1563  145.0983  158.9597 O.2     1  UNL1       -0.2748
     29 N         141.0838  142.8556  159.7145 N.am    1  UNL1       -0.2795
     30 C         141.1020  141.3563  159.7569 C.3     1  UNL1        0.0934
     31 C         140.0113  140.6128  160.4693 C.3     1  UNL1        0.0219
     32 C         138.9024  141.3686  161.1395 C.3     1  UNL1        0.0078
     33 C         138.8842  142.8679  161.0971 C.3     1  UNL1        0.0219
     34 C         139.9749  143.6114  160.3847 C.3     1  UNL1        0.0934
     35 C         137.8117  140.6252  161.8520 C.3     1  UNL1        0.0265
     36 C         138.1252  139.8387  163.0902 C.ar    1  UNL1       -0.0222
     37 C         138.5865  138.4158  162.9782 C.ar    1  UNL1       -0.0043
     38 C         138.8999  137.6294  164.2165 C.ar    1  UNL1       -0.0003
     39 C         138.7522  138.2659  165.5667 C.ar    1  UNL1       -0.0000
     40 C         138.2910  139.6888  165.6786 C.ar    1  UNL1       -0.0003
     41 C         137.9775  140.4752  164.4404 C.ar    1  UNL1       -0.0043
@<TRIPOS>BOND
     1    21    22    1
     2    22    11    1
     3    11    12   ar
     4    12    13   ar
     5    13    14    1
     6    13    15   ar
     7    15    16    1
     8    15    17   ar
     9    17    18   ar
    10    18     7    1
    11     7     8    2
    12     7     9   am
    13     1     9    1
    14     1     2    1
    15     2     3    1
    16     3     4    1
    17     4    25    1
    18    25    26    1
    19    26    27    1
    20    27    28    2
    21    27    29   am
    22    29    30    1
    23    30    31    1
    24    31    32    1
    25    32    35    1
    26    35    36    1
    27    36    37   ar
    28    37    38   ar
    29    38    39   ar
    30    39    40   ar
    31    40    41   ar
    32    32    33    1
    33    33    34    1
    34     4     5    1
    35     5     6    1
    36     6    23    1
    37    23    24    1
    38    18    11   ar
    39     6     1    1
    40    34    29    1
    41    41    36   ar
    42    14    19    1
    43    14    20    1
    44     9    10    1
@<TRIPOS>MOLECULE
*****
 41 44 0 0 0
SMALL
GASTEIGER

@<TRIPOS>ATOM
      1 C         138.7282  140.7818  164.2925 C.3     1  UNL1        0.1017
      2 C         138.1630  141.8828  163.4450 C.3     1  UNL1        0.0394
      3 C         137.6331  141.5782  162.0751 C.3     1  UNL1        0.0740
      4 N         137.6683  140.1725  161.5528 N.3     1  UNL1       -0.2701
      5 C         138.2335  139.0714  162.4004 C.3     1  UNL1        0.1037
      6 C         138.7634  139.3761  163.7701 C.3     1  UNL1        0.1490
      7 C         140.5837  141.7708  165.8186 C.2     1  UNL1        0.2488
      8 O         141.3794  142.1505  164.6051 O.2     1  UNL1       -0.2700
      9 N         139.2581  141.0864  165.6623 N.am    1  UNL1       -0.2999
     10 H         138.7359  140.8372  166.4588 H       1  UNL1        0.1498
     11 C         142.3398  141.3731  167.6915 C.ar    1  UNL1        0.1443
     12 C         142.8697  141.6778  169.0613 C.ar    1  UNL1        0.0520
     13 C         142.1733  142.6846  169.9281 C.ar    1  UNL1        0.0553
     14 N         142.7032  142.9892  171.2979 N.pl3   1  UNL1       -0.3563
     15 C         140.9470  143.3868  169.4250 C.ar    1  UNL1        0.0709
     16 CL        140.2506  144.3937  170.2917 Cl      1  UNL1       -0.0810
     17 C         140.4172  143.0822  168.0552 C.ar    1  UNL1        0.0202
     18 C         141.1136  142.0754  167.1884 C.ar    1  UNL1        0.0882
     19 H         143.5080  142.5283  171.6281 H       1  UNL1        0.1424
     20 H         142.2461  143.6501  171.8668 H       1  UNL1        0.1424
     21 C         143.0524  138.9195  167.2204 C.3     1  UNL1        0.2525
     22 O         143.0363  140.3663  166.8248 O.3     1  UNL1       -0.4712
     23 O         139.3286  138.2750  164.6177 O.3     1  UNL1       -0.3505
     24 C         140.7820  137.9190  164.5134 C.3     1  UNL1        0.1741
     25 C         137.1384  139.8679  160.1831 C.3     1  UNL1        0.0818
     26 C         137.9213  140.2720  158.9690 C.3     1  UNL1        0.1026
     27 C         139.3051  139.7338  158.7555 C.2     1  UNL1        0.2270
     28 O         139.5004  138.4283  158.0433 O.2     1  UNL1       -0.2748
     29 N         140.4935  140.5012  159.2543 N.am    1  UNL1       -0.2795
     30 C         140.2981  141.8068  159.9666 C.3     1  UNL1        0.0934
     31 C         141.4865  142.5743  160.4653 C.3     1  UNL1        0.0219
     32 C         142.8703  142.0360  160.2518 C.3     1  UNL1        0.0078
     33 C         143.0656  140.7305  159.5395 C.3     1  UNL1        0.0219
     34 C         141.8772  139.9631  159.0408 C.3     1  UNL1        0.0934
     35 C         144.0587  142.8035  160.7505 C.3     1  UNL1        0.0265
     36 C         144.2050  143.0907  162.2155 C.ar    1  UNL1       -0.0222
     37 C         144.8268  142.0698  163.1216 C.ar    1  UNL1       -0.0043
     38 C         144.9731  142.3571  164.5865 C.ar    1  UNL1       -0.0003
     39 C         144.4976  143.6653  165.1454 C.ar    1  UNL1       -0.0000
     40 C         143.8757  144.6863  164.2393 C.ar    1  UNL1       -0.0003
     41 C         143.7295  144.3990  162.7744 C.ar    1  UNL1       -0.0043
@<TRIPOS>BOND
     1    21    22    1
     2    22    11    1
     3    11    12   ar
     4    12    13   ar
     5    13    14    1
     6    13    15   ar
     7    15    16    1
     8    15    17   ar
     9    17    18   ar
    10    18     7    1
    11     7     8    2
    12     7     9   am
    13     1     9    1
    14     1     2    1
    15     2     3    1
    16     3     4    1
    17     4    25    1
    18    25    26    1
    19    26    27    1
    20    27    28    2
    21    27    29   am
    22    29    30    1
    23    30    31    1
    24    31    32    1
    25    32    35    1
    26    35    36    1
    27    36    37   ar
    28    37    38   ar
    29    38    39   ar
    30    39    40   ar
    31    40    41   ar
    32    32    33    1
    33    33    34    1
    34     4     5    1
    35     5     6    1
    36     6    23    1
    37    23    24    1
    38    18    11   ar
    39     6     1    1
    40    34    29    1
    41    41    36   ar
    42    14    19    1
    43    14    20    1
    44     9    10    1
@<TRIPOS>MOLECULE
*****
 41 44 0 0 0
SMALL
GASTEIGER

@<TRIPOS>ATOM
      1 C         141.5715  138.2853  163.4710 C.3     1  UNL1        0.1017
      2 C         143.0138  138.2418  163.0613 C.3     1  UNL1        0.0394
      3 C         143.3781  138.0716  161.6161 C.3     1  UNL1        0.0740
      4 N         142.3002  137.9450  160.5808 N.3     1  UNL1       -0.2701
      5 C         140.8579  137.9885  160.9906 C.3     1  UNL1        0.1037
      6 C         140.4935  138.1586  162.4356 C.3     1  UNL1        0.1490
      7 C         141.7937  139.5853  165.7095 C.2     1  UNL1        0.2488
      8 O         142.7446  140.5450  165.0578 O.2     1  UNL1       -0.2700
      9 N         141.2072  138.4554  164.9161 N.am    1  UNL1       -0.2999
     10 H         140.5831  137.8256  165.3439 H       1  UNL1        0.1498
     11 C         139.9969  139.9648  167.5473 C.ar    1  UNL1        0.1443
     12 C         139.6326  140.1349  168.9923 C.ar    1  UNL1        0.0520
     13 C         140.7007  140.0956  170.0447 C.ar    1  UNL1        0.0553
     14 N         140.3363  140.2657  171.4899 N.pl3   1  UNL1       -0.3563
     15 C         142.1331  139.8862  169.6521 C.ar    1  UNL1        0.0709
     16 CL        143.2012  139.8469  170.7045 Cl      1  UNL1       -0.0810
     17 C         142.4974  139.7161  168.2070 C.ar    1  UNL1        0.0202
     18 C         141.4293  139.7554  167.1546 C.ar    1  UNL1        0.0882
     19 H         139.3961  140.4032  171.7476 H       1  UNL1        0.1424
     20 H         141.0373  140.2399  172.1806 H       1  UNL1        0.1424
     21 C         137.9340  138.8860  166.3937 C.3     1  UNL1        0.2525
     22 O         138.9288  140.0041  166.4948 O.3     1  UNL1       -0.4712
     23 O         139.0512  138.2021  162.8454 O.3     1  UNL1       -0.3505
     24 C         138.2723  139.4772  162.7139 C.3     1  UNL1        0.1741
     25 C         142.6645  137.7748  159.1357 C.3     1  UNL1        0.0818
     26 C         142.5640  138.9387  158.1949 C.3     1  UNL1        0.1026
     27 C         143.2873  140.2164  158.5024 C.2     1  UNL1        0.2270
     28 O         144.6970  140.4129  158.0291 O.2     1  UNL1       -0.2748
     29 N         142.6008  141.2975  159.2834 N.am    1  UNL1       -0.2795
     30 C         141.1910  141.1010  159.7567 C.3     1  UNL1        0.0934
     31 C         140.5045  142.1821  160.5377 C.3     1  UNL1        0.0219
     32 C         141.2278  143.4598  160.8452 C.3     1  UNL1        0.0078
     33 C         142.6375  143.6563  160.3719 C.3     1  UNL1        0.0219
     34 C         143.3240  142.5751  159.5910 C.3     1  UNL1        0.0934
     35 C         140.5413  144.5409  161.6262 C.3     1  UNL1        0.0265
     36 C         140.1810  144.3138  163.0645 C.ar    1  UNL1       -0.0222
     37 C         138.9036  144.8749  163.6153 C.ar    1  UNL1       -0.0043
     38 C         138.5434  144.6478  165.0536 C.ar    1  UNL1       -0.0003
     39 C         139.4605  143.8595  165.9410 C.ar    1  UNL1       -0.0000
     40 C         140.7379  143.2983  165.3901 C.ar    1  UNL1       -0.0003
     41 C         141.0981  143.5255  163.9519 C.ar    1  UNL1       -0.0043
@<TRIPOS>BOND
     1    21    22    1
     2    22    11    1
     3    11    12   ar
     4    12    13   ar
     5    13    14    1
     6    13    15   ar
     7    15    16    1
     8    15    17   ar
     9    17    18   ar
    10    18     7    1
    11     7     8    2
    12     7     9   am
    13     1     9    1
    14     1     2    1
    15     2     3    1
    16     3     4    1
    17     4    25    1
    18    25    26    1
    19    26    27    1
    20    27    28    2
    21    27    29   am
    22    29    30    1
    23    30    31    1
    24    31    32    1
    25    32    35    1
    26    35    36    1
    27    36    37   ar
    28    37    38   ar
    29    38    39   ar
    30    39    40   ar
    31    40    41   ar
    32    32    33    1
    33    33    34    1
    34     4     5    1
    35     5     6    1
    36     6    23    1
    37    23    24    1
    38    18    11   ar
    39     6     1    1
    40    34    29    1
    41    41    36   ar
    42    14    19    1
    43    14    20    1
    44     9    10    1
@<TRIPOS>MOLECULE
*****
 41 44 0 0 0
SMALL
GASTEIGER

@<TRIPOS>ATOM
      1 C         143.9240  141.8884  164.1268 C.3     1  UNL1        0.1017
      2 C         144.4874  140.7840  163.2824 C.3     1  UNL1        0.0394
      3 C         144.8316  141.0400  161.8450 C.3     1  UNL1        0.0740
      4 N         144.6124  142.4002  161.2520 N.3     1  UNL1       -0.2701
      5 C         144.0490  143.5045  162.0964 C.3     1  UNL1        0.1037
      6 C         143.7048  143.2487  163.5337 C.3     1  UNL1        0.1490
      7 C         142.1677  141.3057  165.9505 C.2     1  UNL1        0.2488
      8 O         141.0999  141.2348  164.8995 O.2     1  UNL1       -0.2700
      9 N         143.5798  141.6325  165.5641 N.am    1  UNL1       -0.2999
     10 H         144.2807  141.6790  166.2539 H       1  UNL1        0.1498
     11 C         142.4049  139.8637  168.0987 C.ar    1  UNL1        0.1443
     12 C         142.0607  139.6079  169.5360 C.ar    1  UNL1        0.0520
     13 C         141.1352  140.5381  170.2627 C.ar    1  UNL1        0.0553
     14 N         140.7911  140.2823  171.7001 N.pl3   1  UNL1       -0.3563
     15 C         140.5539  141.7243  169.5520 C.ar    1  UNL1        0.0709
     16 CL        139.6284  142.6545  170.2786 Cl      1  UNL1       -0.0810
     17 C         140.8981  141.9801  168.1146 C.ar    1  UNL1        0.0202
     18 C         141.8236  141.0498  167.3880 C.ar    1  UNL1        0.0882
     19 H         141.1726  139.5038  172.1666 H       1  UNL1        0.1424
     20 H         140.1836  140.8928  172.1771 H       1  UNL1        0.1424
     21 C         142.8628  138.2247  166.1355 C.3     1  UNL1        0.2525
     22 O         143.3304  138.9334  167.3720 O.3     1  UNL1       -0.4712
     23 O         143.1414  144.3530  164.3781 O.3     1  UNL1       -0.3505
     24 C         142.0131  145.1936  163.8582 C.3     1  UNL1        0.1741
     25 C         144.9566  142.6561  159.8147 C.3     1  UNL1        0.0818
     26 C         143.9939  142.2668  158.7322 C.3     1  UNL1        0.1026
     27 C         143.4945  140.8550  158.6447 C.2     1  UNL1        0.2270
     28 O         144.2488  139.8414  157.8362 O.2     1  UNL1       -0.2748
     29 N         142.2409  140.4569  159.3656 N.am    1  UNL1       -0.2795
     30 C         141.4866  141.4706  160.1741 C.3     1  UNL1        0.0934
     31 C         140.2329  141.0725  160.8951 C.3     1  UNL1        0.0219
     32 C         139.7335  139.6608  160.8076 C.3     1  UNL1        0.0078
     33 C         140.4878  138.6472  159.9991 C.3     1  UNL1        0.0219
     34 C         141.7415  139.0453  159.2782 C.3     1  UNL1        0.0934
     35 C         138.4798  139.2627  161.5285 C.3     1  UNL1        0.0265
     36 C         138.5002  139.0655  163.0154 C.ar    1  UNL1       -0.0222
     37 C         138.9731  137.7645  163.5930 C.ar    1  UNL1       -0.0043
     38 C         138.9934  137.5673  165.0799 C.ar    1  UNL1       -0.0003
     39 C         138.5408  138.6711  165.9891 C.ar    1  UNL1       -0.0000
     40 C         138.0679  139.9721  165.4115 C.ar    1  UNL1       -0.0003
     41 C         138.0475  140.1693  163.9246 C.ar    1  UNL1       -0.0043
@<TRIPOS>BOND
     1    21    22    1
     2    22    11    1
     3    11    12   ar
     4    12    13   ar
     5    13    14    1
     6    13    15   ar
     7    15    16    1
     8    15    17   ar
     9    17    18   ar
    10    18     7    1
    11     7     8    2
    12     7     9   am
    13     1     9    1
    14     1     2    1
    15     2     3    1
    16     3     4    1
    17     4    25    1
    18    25    26    1
    19    26    27    1
    20    27    28    2
    21    27    29   am
    22    29    30    1
    23    30    31    1
    24    31    32    1
    25    32    35    1
    26    35    36    1
    27    36    37   ar
    28    37    38   ar
    29    38    39   ar
    30    39    40   ar
    31    40    41   ar
    32    32    33    1
    33    33    34    1
    34     4     5    1
    35     5     6    1
    36     6    23    1
    37    23    24    1
    38    18    11   ar
    39     6     1    1
    40    34    29    1
    41    41    36   ar
    42    14    19    1
    43    14    20    1
    44     9    10    1
@<TRIPOS>MOLECULE
*****
 41 44 0 0 0
SMALL
GASTEIGER

@<TRIPOS>ATOM
      1 C         143.0362  143.4176  162.7121 C.3     1  UNL1        0.1017
      2 C         142.0011  143.9064  161.7427 C.3     1  UNL1        0.0394
      3 C         142.2402  143.7869  160.2666 C.3     1  UNL1        0.0740
      4 N         143.5142  143.1785  159.7601 N.3     1  UNL1       -0.2701
      5 C         144.5493  142.6897  160.7295 C.3     1  UNL1        0.1037
      6 C         144.3103  142.8092  162.2054 C.3     1  UNL1        0.1490
      7 C         142.2017  142.3884  164.9469 C.2     1  UNL1        0.2488
      8 O         141.8453  141.1201  164.2297 O.2     1  UNL1       -0.2700
      9 N         142.7971  143.5372  164.1881 N.am    1  UNL1       -0.2999
     10 H         143.0311  144.3696  164.6588 H       1  UNL1        0.1498
     11 C         140.5912  142.8317  166.9368 C.ar    1  UNL1        0.1443
     12 C         140.3523  142.9513  168.4128 C.ar    1  UNL1        0.0520
     13 C         141.4848  142.7471  169.3749 C.ar    1  UNL1        0.0553
     14 N         141.2458  142.8667  170.8509 N.pl3   1  UNL1       -0.3563
     15 C         142.8563  142.4234  168.8610 C.ar    1  UNL1        0.0709
     16 CL        143.9889  142.2193  169.8231 Cl      1  UNL1       -0.0810
     17 C         143.0953  142.3039  167.3850 C.ar    1  UNL1        0.0202
     18 C         141.9627  142.5080  166.4229 C.ar    1  UNL1        0.0882
     19 H         140.3456  143.0792  171.1882 H       1  UNL1        0.1424
     20 H         141.9891  142.7328  171.4824 H       1  UNL1        0.1424
     21 C         139.1680  144.4061  165.4383 C.3     1  UNL1        0.2525
     22 O         139.4586  143.0358  165.9747 O.3     1  UNL1       -0.4712
     23 O         145.3453  142.3204  163.1749 O.3     1  UNL1       -0.3505
     24 C         145.3554  140.8817  163.5991 C.3     1  UNL1        0.1741
     25 C         143.7533  143.0590  158.2841 C.3     1  UNL1        0.0818
     26 C         143.3283  141.8198  157.5534 C.3     1  UNL1        0.1026
     27 C         141.8702  141.5304  157.3525 C.2     1  UNL1        0.2270
     28 O         141.1484  142.1017  156.1683 O.2     1  UNL1       -0.2748
     29 N         141.1340  140.6697  158.3359 N.am    1  UNL1       -0.2795
     30 C         141.8559  140.0983  159.5203 C.3     1  UNL1        0.0934
     31 C         141.1197  139.2376  160.5037 C.3     1  UNL1        0.0219
     32 C         139.6616  138.9482  160.3028 C.3     1  UNL1        0.0078
     33 C         138.9398  139.5195  159.1185 C.3     1  UNL1        0.0219
     34 C         139.6760  140.3803  158.1351 C.3     1  UNL1        0.0934
     35 C         138.9253  138.0874  161.2862 C.3     1  UNL1        0.0265
     36 C         138.7484  138.5497  162.7022 C.ar    1  UNL1       -0.0222
     37 C         138.2143  139.9232  162.9816 C.ar    1  UNL1       -0.0043
     38 C         138.0373  140.3854  164.3976 C.ar    1  UNL1       -0.0003
     39 C         138.3944  139.4740  165.5342 C.ar    1  UNL1       -0.0000
     40 C         138.9285  138.1005  165.2548 C.ar    1  UNL1       -0.0003
     41 C         139.1054  137.6383  163.8388 C.ar    1  UNL1       -0.0043
@<TRIPOS>BOND
     1    21    22    1
     2    22    11    1
     3    11    12   ar
     4    12    13   ar
     5    13    14    1
     6    13    15   ar
     7    15    16    1
     8    15    17   ar
     9    17    18   ar
    10    18     7    1
    11     7     8    2
    12     7     9   am
    13     1     9    1
    14     1     2    1
    15     2     3    1
    16     3     4    1
    17     4    25    1
    18    25    26    1
    19    26    27    1
    20    27    28    2
    21    27    29   am
    22    29    30    1
    23    30    31    1
    24    31    32    1
    25    32    35    1
    26    35    36    1
    27    36    37   ar
    28    37    38   ar
    29    38    39   ar
    30    39    40   ar
    31    40    41   ar
    32    32    33    1
    33    33    34    1
    34     4     5    1
    35     5     6    1
    36     6    23    1
    37    23    24    1
    38    18    11   ar
    39     6     1    1
    40    34    29    1
    41    41    36   ar
    42    14    19    1
    43    14    20    1
    44     9    10    1
@<TRIPOS>MOLECULE
*****
 41 44 0 0 0
SMALL
GASTEIGER

@<TRIPOS>ATOM
      1 C         139.7683  143.6166  163.9535 C.3     1  UNL1        0.1017
      2 C         140.6257  144.8371  163.7942 C.3     1  UNL1        0.0394
      3 C         140.7977  145.4614  162.4412 C.3     1  UNL1        0.0740
      4 N         140.1124  144.8654  161.2475 N.3     1  UNL1       -0.2701
      5 C         139.2550  143.6449  161.4067 C.3     1  UNL1        0.1037
      6 C         139.0829  143.0205  162.7597 C.3     1  UNL1        0.1490
      7 C         140.7216  142.2149  165.9223 C.2     1  UNL1        0.2488
      8 O         142.0190  142.0620  165.1853 O.2     1  UNL1       -0.2700
      9 N         139.5962  142.9922  165.3064 N.am    1  UNL1       -0.2999
     10 H         138.7447  143.0926  165.7902 H       1  UNL1        0.1498
     11 C         139.5743  140.4665  167.4641 C.ar    1  UNL1        0.1443
     12 C         139.4022  139.8422  168.8170 C.ar    1  UNL1        0.0520
     13 C         140.2053  140.3418  169.9812 C.ar    1  UNL1        0.0553
     14 N         140.0332  139.7174  171.3343 N.pl3   1  UNL1       -0.3563
     15 C         141.1805  141.4658  169.7925 C.ar    1  UNL1        0.0709
     16 CL        141.9837  141.9654  170.9567 Cl      1  UNL1       -0.0810
     17 C         141.3526  142.0901  168.4395 C.ar    1  UNL1        0.0202
     18 C         140.5495  141.5905  167.2753 C.ar    1  UNL1        0.0882
     19 H         139.3932  138.9797  171.4581 H       1  UNL1        0.1424
     20 H         140.5603  140.0453  172.0984 H       1  UNL1        0.1424
     21 C         137.9731  138.7032  166.4264 C.3     1  UNL1        0.2525
     22 O         138.7712  139.9669  166.2999 O.3     1  UNL1       -0.4712
     23 O         138.2255  141.8001  162.9189 O.3     1  UNL1       -0.3505
     24 C         137.8253  141.0022  161.7135 C.3     1  UNL1        0.1741
     25 C         140.2844  145.4898  159.8946 C.3     1  UNL1        0.0818
     26 C         141.4523  145.1067  159.0348 C.3     1  UNL1        0.1026
     27 C         141.5217  143.7349  158.4318 C.2     1  UNL1        0.2270
     28 O         140.9584  143.4875  157.0639 O.2     1  UNL1       -0.2748
     29 N         142.1545  142.6105  159.1970 N.am    1  UNL1       -0.2795
     30 C         142.7178  142.8580  160.5651 C.3     1  UNL1        0.0934
     31 C         143.3506  141.7336  161.3302 C.3     1  UNL1        0.0219
     32 C         143.4200  140.3618  160.7273 C.3     1  UNL1        0.0078
     33 C         142.8567  140.1144  159.3593 C.3     1  UNL1        0.0219
     34 C         142.2239  141.2388  158.5942 C.3     1  UNL1        0.0934
     35 C         144.0527  139.2375  161.4925 C.3     1  UNL1        0.0265
     36 C         143.5967  138.9299  162.8880 C.ar    1  UNL1       -0.0222
     37 C         144.4360  139.3448  164.0599 C.ar    1  UNL1       -0.0043
     38 C         143.9799  139.0373  165.4554 C.ar    1  UNL1       -0.0003
     39 C         142.6845  138.3149  165.6789 C.ar    1  UNL1       -0.0000
     40 C         141.8451  137.9000  164.5071 C.ar    1  UNL1       -0.0003
     41 C         142.3012  138.2076  163.1116 C.ar    1  UNL1       -0.0043
@<TRIPOS>BOND
     1    21    22    1
     2    22    11    1
     3    11    12   ar
     4    12    13   ar
     5    13    14    1
     6    13    15   ar
     7    15    16    1
     8    15    17   ar
     9    17    18   ar
    10    18     7    1
    11     7     8    2
    12     7     9   am
    13     1     9    1
    14     1     2    1
    15     2     3    1
    16     3     4    1
    17     4    25    1
    18    25    26    1
    19    26    27    1
    20    27    28    2
    21    27    29   am
    22    29    30    1
    23    30    31    1
    24    31    32    1
    25    32    35    1
    26    35    36    1
    27    36    37   ar
    28    37    38   ar
    29    38    39   ar
    30    39    40   ar
    31    40    41   ar
    32    32    33    1
    33    33    34    1
    34     4     5    1
    35     5     6    1
    36     6    23    1
    37    23    24    1
    38    18    11   ar
    39     6     1    1
    40    34    29    1
    41    41    36   ar
    42    14    19    1
    43    14    20    1
    44     9    10    1
@<TRIPOS>MOLECULE
*****
 41 44 0 0 0
SMALL
GASTEIGER

@<TRIPOS>ATOM
      1 C         141.3886  143.5990  163.3744 C.3     1  UNL1        0.1017
      2 C         142.3588  143.3244  162.2639 C.3     1  UNL1        0.0394
      3 C         142.1533  143.9509  160.9165 C.3     1  UNL1        0.0740
      4 N         140.9777  144.8519  160.6797 N.3     1  UNL1       -0.2701
      5 C         140.0075  145.1265  161.7903 C.3     1  UNL1        0.1037
      6 C         140.2129  144.5001  163.1376 C.3     1  UNL1        0.1490
      7 C         140.8353  141.7341  165.0966 C.2     1  UNL1        0.2488
      8 O         139.8711  141.1221  164.1242 O.2     1  UNL1       -0.2700
      9 N         141.5940  142.9726  164.7218 N.am    1  UNL1       -0.2999
     10 H         142.2268  143.3743  165.3601 H       1  UNL1        0.1498
     11 C         142.3910  140.5784  166.8270 C.ar    1  UNL1        0.1443
     12 C         142.5964  139.9520  168.1744 C.ar    1  UNL1        0.0520
     13 C         141.4516  139.8550  169.1388 C.ar    1  UNL1        0.0553
     14 N         141.6571  139.2285  170.4862 N.pl3   1  UNL1       -0.3563
     15 C         140.1014  140.3843  168.7558 C.ar    1  UNL1        0.0709
     16 CL        138.9566  140.2872  169.7202 Cl      1  UNL1       -0.0810
     17 C         139.8960  141.0107  167.4084 C.ar    1  UNL1        0.0202
     18 C         141.0408  141.1077  166.4441 C.ar    1  UNL1        0.0882
     19 H         142.5433  138.8811  170.7375 H       1  UNL1        0.1424
     20 H         140.9057  139.1648  171.1192 H       1  UNL1        0.1424
     21 C         143.9483  139.4740  165.0649 C.3     1  UNL1        0.2525
     22 O         143.5358  140.6754  165.8626 O.3     1  UNL1       -0.4712
     23 O         139.2427  144.7746  164.2482 O.3     1  UNL1       -0.3505
     24 C         137.9070  144.0923  164.2630 C.3     1  UNL1        0.1741
     25 C         140.7722  145.4783  159.3324 C.3     1  UNL1        0.0818
     26 C         140.1002  144.7020  158.2389 C.3     1  UNL1        0.1026
     27 C         140.6836  143.3998  157.7760 C.2     1  UNL1        0.2270
     28 O         141.6573  143.3776  156.6353 O.2     1  UNL1       -0.2748
     29 N         140.2933  142.1200  158.4540 N.am    1  UNL1       -0.2795
     30 C         139.3195  142.1423  159.5948 C.3     1  UNL1        0.0934
     31 C         138.9292  140.8624  160.2728 C.3     1  UNL1        0.0219
     32 C         139.5126  139.5603  159.8099 C.3     1  UNL1        0.0078
     33 C         140.4863  139.5381  158.6691 C.3     1  UNL1        0.0219
     34 C         140.8766  140.8179  157.9912 C.3     1  UNL1        0.0934
     35 C         139.1223  138.2804  160.4879 C.3     1  UNL1        0.0265
     36 C         139.5514  138.0193  161.9013 C.ar    1  UNL1       -0.0222
     37 C         138.5449  138.0707  163.0123 C.ar    1  UNL1       -0.0043
     38 C         138.9740  137.8096  164.4257 C.ar    1  UNL1       -0.0003
     39 C         140.4096  137.4970  164.7280 C.ar    1  UNL1       -0.0000
     40 C         141.4160  137.4455  163.6170 C.ar    1  UNL1       -0.0003
     41 C         140.9869  137.7067  162.2037 C.ar    1  UNL1       -0.0043
@<TRIPOS>BOND
     1    21    22    1
     2    22    11    1
     3    11    12   ar
     4    12    13   ar
     5    13    14    1
     6    13    15   ar
     7    15    16    1
     8    15    17   ar
     9    17    18   ar
    10    18     7    1
    11     7     8    2
    12     7     9   am
    13     1     9    1
    14     1     2    1
    15     2     3    1
    16     3     4    1
    17     4    25    1
    18    25    26    1
    19    26    27    1
    20    27    28    2
    21    27    29   am
    22    29    30    1
    23    30    31    1
    24    31    32    1
    25    32    35    1
    26    35    36    1
    27    36    37   ar
    28    37    38   ar
    29    38    39   ar
    30    39    40   ar
    31    40    41   ar
    32    32    33    1
    33    33    34    1
    34     4     5    1
    35     5     6    1
    36     6    23    1
    37    23    24    1
    38    18    11   ar
    39     6     1    1
    40    34    29    1
    41    41    36   ar
    42    14    19    1
    43    14    20    1
    44     9    10    1
@<TRIPOS>MOLECULE
*****
 41 44 0 0 0
SMALL
GASTEIGER

@<TRIPOS>ATOM
      1 C         142.5821  138.8805  163.8709 C.3     1  UNL1        0.1017
      2 C         141.3900  138.3174  163.1557 C.3     1  UNL1        0.0394
      3 C         141.5198  137.8460  161.7375 C.3     1  UNL1        0.0740
      4 N         142.8417  137.9379  161.0347 N.3     1  UNL1       -0.2701
      5 C         144.0339  138.5010  161.7499 C.3     1  UNL1        0.1037
      6 C         143.9041  138.9723  163.1680 C.3     1  UNL1        0.1490
      7 C         142.0093  140.7561  165.5750 C.2     1  UNL1        0.2488
      8 O         141.6960  141.6890  164.4430 O.2     1  UNL1       -0.2700
      9 N         142.4524  139.3519  165.2890 N.am    1  UNL1       -0.2999
     10 H         142.6580  138.7396  166.0320 H       1  UNL1        0.1498
     11 C         140.5329  141.2582  167.6530 C.ar    1  UNL1        0.1443
     12 C         140.4032  141.7295  169.0711 C.ar    1  UNL1        0.0520
     13 C         141.6202  142.1700  169.8294 C.ar    1  UNL1        0.0553
     14 N         141.4905  142.6414  171.2475 N.pl3   1  UNL1       -0.3563
     15 C         142.9669  142.1392  169.1695 C.ar    1  UNL1        0.0709
     16 CL        144.1839  142.5797  169.9277 Cl      1  UNL1       -0.0810
     17 C         143.0966  141.6679  167.7514 C.ar    1  UNL1        0.0202
     18 C         141.8796  141.2274  166.9932 C.ar    1  UNL1        0.0882
     19 H         140.6066  142.6616  171.6806 H       1  UNL1        0.1424
     20 H         142.2892  142.9305  171.7452 H       1  UNL1        0.1424
     21 C         138.8621  139.3900  166.9689 C.3     1  UNL1        0.2525
     22 O         139.3159  140.8178  166.8948 O.3     1  UNL1       -0.4712
     23 O         145.0963  139.5355  163.8832 O.3     1  UNL1       -0.3505
     24 C         145.3836  141.0063  163.8192 C.3     1  UNL1        0.1741
     25 C         142.9714  137.4665  159.6166 C.3     1  UNL1        0.0818
     26 C         142.6319  138.3908  158.4850 C.3     1  UNL1        0.1026
     27 C         143.1811  139.7865  158.4661 C.2     1  UNL1        0.2270
     28 O         144.5390  140.0504  157.8862 O.2     1  UNL1       -0.2748
     29 N         142.3723  140.9184  159.0271 N.am    1  UNL1       -0.2795
     30 C         141.0143  140.6544  159.6071 C.3     1  UNL1        0.0934
     31 C         140.2055  141.7863  160.1682 C.3     1  UNL1        0.0219
     32 C         140.7547  143.1820  160.1492 C.3     1  UNL1        0.0078
     33 C         142.1126  143.4459  159.5693 C.3     1  UNL1        0.0219
     34 C         142.9214  142.3141  159.0082 C.3     1  UNL1        0.0934
     35 C         139.9459  144.3139  160.7103 C.3     1  UNL1        0.0265
     36 C         139.4862  144.2719  162.1376 C.ar    1  UNL1       -0.0222
     37 C         138.1389  143.7057  162.4753 C.ar    1  UNL1       -0.0043
     38 C         137.6793  143.6638  163.9025 C.ar    1  UNL1       -0.0003
     39 C         138.5671  144.1880  164.9920 C.ar    1  UNL1       -0.0000
     40 C         139.9145  144.7541  164.6543 C.ar    1  UNL1       -0.0003
     41 C         140.3740  144.7961  163.2271 C.ar    1  UNL1       -0.0043
@<TRIPOS>BOND
     1    21    22    1
     2    22    11    1
     3    11    12   ar
     4    12    13   ar
     5    13    14    1
     6    13    15   ar
     7    15    16    1
     8    15    17   ar
     9    17    18   ar
    10    18     7    1
    11     7     8    2
    12     7     9   am
    13     1     9    1
    14     1     2    1
    15     2     3    1
    16     3     4    1
    17     4    25    1
    18    25    26    1
    19    26    27    1
    20    27    28    2
    21    27    29   am
    22    29    30    1
    23    30    31    1
    24    31    32    1
    25    32    35    1
    26    35    36    1
    27    36    37   ar
    28    37    38   ar
    29    38    39   ar
    30    39    40   ar
    31    40    41   ar
    32    32    33    1
    33    33    34    1
    34     4     5    1
    35     5     6    1
    36     6    23    1
    37    23    24    1
    38    18    11   ar
    39     6     1    1
    40    34    29    1
    41    41    36   ar
    42    14    19    1
    43    14    20    1
    44     9    10    1
@<TRIPOS>MOLECULE
*****
 41 44 0 0 0
SMALL
GASTEIGER

@<TRIPOS>ATOM
      1 C         139.7860  143.5933  162.8711 C.3     1  UNL1        0.1017
      2 C         139.0248  142.8565  161.8091 C.3     1  UNL1        0.0394
      3 C         139.2164  143.2134  160.3648 C.3     1  UNL1        0.0740
      4 N         140.1691  144.3070  159.9825 N.3     1  UNL1       -0.2701
      5 C         140.9304  145.0438  161.0444 C.3     1  UNL1        0.1037
      6 C         140.7388  144.6870  162.4886 C.3     1  UNL1        0.1490
      7 C         140.4973  142.2304  164.9655 C.2     1  UNL1        0.2488
      8 O         141.5917  141.5811  164.1713 O.2     1  UNL1       -0.2700
      9 N         139.5944  143.2365  164.3153 N.am    1  UNL1       -0.2999
     10 H         138.8762  143.6627  164.8366 H       1  UNL1        0.1498
     11 C         139.7538  140.5299  166.7836 C.ar    1  UNL1        0.1443
     12 C         139.5622  140.1732  168.2279 C.ar    1  UNL1        0.0520
     13 C         139.9225  141.1602  169.2984 C.ar    1  UNL1        0.0553
     14 N         139.7309  140.8034  170.7427 N.pl3   1  UNL1       -0.3563
     15 C         140.4745  142.5039  168.9246 C.ar    1  UNL1        0.0709
     16 CL        140.8348  143.4909  169.9951 Cl      1  UNL1       -0.0810
     17 C         140.6660  142.8606  167.4803 C.ar    1  UNL1        0.0202
     18 C         140.3057  141.8737  166.4098 C.ar    1  UNL1        0.0882
     19 H         139.3687  139.9215  170.9880 H       1  UNL1        0.1424
     20 H         139.9674  141.4512  171.4454 H       1  UNL1        0.1424
     21 C         138.1124  139.6999  164.9486 C.3     1  UNL1        0.2525
     22 O         139.3934  139.5429  165.7131 O.3     1  UNL1       -0.4712
     23 O         141.5001  145.4237  163.5506 O.3     1  UNL1       -0.3505
     24 C         142.9403  145.0926  163.8073 C.3     1  UNL1        0.1741
     25 C         140.3607  144.6638  158.5382 C.3     1  UNL1        0.0818
     26 C         141.4963  144.0654  157.7620 C.3     1  UNL1        0.1026
     27 C         141.4937  142.6009  157.4378 C.2     1  UNL1        0.2270
     28 O         140.8444  142.1131  156.1767 O.2     1  UNL1       -0.2748
     29 N         142.1404  141.6241  158.3747 N.am    1  UNL1       -0.2795
     30 C         142.7897  142.1120  159.6359 C.3     1  UNL1        0.0934
     31 C         143.4364  141.1353  160.5728 C.3     1  UNL1        0.0219
     32 C         143.4338  139.6707  160.2486 C.3     1  UNL1        0.0078
     33 C         142.7845  139.1829  158.9875 C.3     1  UNL1        0.0219
     34 C         142.1378  140.1596  158.0505 C.3     1  UNL1        0.0934
     35 C         144.0805  138.6940  161.1855 C.3     1  UNL1        0.0265
     36 C         143.6319  138.6162  162.6148 C.ar    1  UNL1       -0.0222
     37 C         142.3378  137.9403  162.9589 C.ar    1  UNL1       -0.0043
     38 C         141.8893  137.8625  164.3881 C.ar    1  UNL1       -0.0003
     39 C         142.7348  138.4607  165.4732 C.ar    1  UNL1       -0.0000
     40 C         144.0289  139.1366  165.1290 C.ar    1  UNL1       -0.0003
     41 C         144.4774  139.2143  163.6998 C.ar    1  UNL1       -0.0043
@<TRIPOS>BOND
     1    21    22    1
     2    22    11    1
     3    11    12   ar
     4    12    13   ar
     5    13    14    1
     6    13    15   ar
     7    15    16    1
     8    15    17   ar
     9    17    18   ar
    10    18     7    1
    11     7     8    2
    12     7     9   am
    13     1     9    1
    14     1     2    1
    15     2     3    1
    16     3     4    1
    17     4    25    1
    18    25    26    1
    19    26    27    1
    20    27    28    2
    21    27    29   am
    22    29    30    1
    23    30    31    1
    24    31    32    1
    25    32    35    1
    26    35    36    1
    27    36    37   ar
    28    37    38   ar
    29    38    39   ar
    30    39    40   ar
    31    40    41   ar
    32    32    33    1
    33    33    34    1
    34     4     5    1
    35     5     6    1
    36     6    23    1
    37    23    24    1
    38    18    11   ar
    39     6     1    1
    40    34    29    1
    41    41    36   ar
    42    14    19    1
    43    14    20    1
    44     9    10    1
