@<TRIPOS>MOLECULE
*****
 33 37 0 0 0
SMALL
GASTEIGER

@<TRIPOS>ATOM
      1 N         141.5571  137.3337  157.5304 N.am    1  UNL1       -0.3005
      2 C         142.5503  138.1306  158.3232 C.2     1  UNL1        0.2476
      3 O         143.6300  138.8975  157.6189 O.2     1  UNL1       -0.2701
      4 H         140.8485  136.8304  157.9927 H       1  UNL1        0.1499
      5 C         142.4636  138.1607  159.8204 C.ar    1  UNL1        0.0755
      6 C         143.7094  138.0352  160.6465 C.ar    1  UNL1        0.1035
      7 N         143.6227  138.0653  162.1436 N.ar    1  UNL1       -0.2406
      8 C         142.2903  138.2209  162.8148 C.ar    1  UNL1        0.1180
      9 C         141.0445  138.3464  161.9888 C.ar    1  UNL1        0.1036
     10 C         141.1312  138.3163  160.4916 C.ar    1  UNL1        0.0460
     11 C         139.7423  138.4613  159.9438 C.ar    1  UNL1        0.1222
     12 N         138.7973  138.5810  161.1025 N.ar    1  UNL1       -0.1635
     13 N         139.6021  138.5100  162.3663 N.ar    1  UNL1       -0.2281
     14 C         139.0597  138.5887  163.7626 C.ar    1  UNL1        0.0830
     15 C         138.9310  137.3433  164.5886 C.ar    1  UNL1        0.0215
     16 C         138.3886  137.4221  165.9849 C.ar    1  UNL1        0.0312
     17 C         137.9749  138.7463  166.5552 C.ar    1  UNL1        0.1402
     18 F         137.4325  138.8251  167.9515 F       1  UNL1       -0.2042
     19 C         138.1036  139.9917  165.7292 C.ar    1  UNL1        0.0312
     20 C         138.6460  139.9130  164.3329 C.ar    1  UNL1        0.0215
     21 C         141.6437  137.3036  156.0332 C.3     1  UNL1        0.0762
     22 C         141.6326  137.7796  154.6108 C.3     1  UNL1        0.0242
     23 C         141.3924  138.7507  155.7286 C.3     1  UNL1        0.0242
     24 C         143.2567  133.6983  156.4216 C.ar    1  UNL1        0.1860
     25 C         142.9752  135.1559  156.6369 C.ar    1  UNL1        0.0352
     26 C         141.9251  135.8461  155.8178 C.ar    1  UNL1       -0.0019
     27 C         141.1564  135.0787  154.7833 C.ar    1  UNL1        0.0180
     28 C         141.4379  133.6211  154.5680 C.ar    1  UNL1        0.1001
     29 N         142.4880  132.9310  155.3871 N.ar    1  UNL1       -0.2257
     30 C         145.3569  132.3180  158.0598 C.3     1  UNL1        0.1834
     31 S         144.3068  133.0082  157.2407 S.O2    1  UNL1        0.0268
     32 O         143.9868  133.9008  158.4029 O.2     1  UNL1       -0.1671
     33 O         144.6267  132.1156  156.0784 O.2     1  UNL1       -0.1671
@<TRIPOS>BOND
     1    30    31    1
     2    31    32    2
     3    31    33    2
     4    31    24    1
     5    24    25   ar
     6    25    26   ar
     7    26    21    1
     8    21     1    1
     9     1     2   am
    10     2     3    2
    11     2     5    1
    12     5     6   ar
    13     6     7   ar
    14     7     8   ar
    15     8     9   ar
    16     9    10   ar
    17    10    11   ar
    18    11    12   ar
    19    12    13   ar
    20    13    14    1
    21    14    15   ar
    22    15    16   ar
    23    16    17   ar
    24    17    18    1
    25    17    19   ar
    26    19    20   ar
    27    21    22    1
    28    22    23    1
    29    26    27   ar
    30    27    28   ar
    31    28    29   ar
    32    29    24   ar
    33    23    21    1
    34    10     5   ar
    35    20    14   ar
    36    13     9   ar
    37     1     4    1
@<TRIPOS>MOLECULE
*****
 33 37 0 0 0
SMALL
GASTEIGER

@<TRIPOS>ATOM
      1 N         140.1541  140.5982  164.0592 N.am    1  UNL1       -0.3005
      2 C         140.1605  142.0968  163.9958 C.2     1  UNL1        0.2476
      3 O         139.5159  142.8964  165.0890 O.2     1  UNL1       -0.2701
      4 H         140.5772  140.0734  163.3417 H       1  UNL1        0.1499
      5 C         140.8114  142.7958  162.8392 C.ar    1  UNL1        0.0755
      6 C         142.2085  143.3253  162.9727 C.ar    1  UNL1        0.1035
      7 N         142.8593  144.0242  161.8161 N.ar    1  UNL1       -0.2406
      8 C         142.1131  144.1938  160.5260 C.ar    1  UNL1        0.1180
      9 C         140.7161  143.6644  160.3925 C.ar    1  UNL1        0.1036
     10 C         140.0652  142.9654  161.5491 C.ar    1  UNL1        0.0460
     11 C         138.6871  142.5517  161.1248 C.ar    1  UNL1        0.1222
     12 N         138.4864  142.9951  159.7059 N.ar    1  UNL1       -0.1635
     13 N         139.7403  143.6827  159.2534 N.ar    1  UNL1       -0.2281
     14 C         139.9770  144.2833  157.8994 C.ar    1  UNL1        0.0830
     15 C         140.2397  145.7541  157.7668 C.ar    1  UNL1        0.0215
     16 C         140.4763  146.3547  156.4128 C.ar    1  UNL1        0.0312
     17 C         140.4503  145.4844  155.1913 C.ar    1  UNL1        0.1402
     18 F         140.6870  146.0850  153.8373 F       1  UNL1       -0.2042
     19 C         140.1877  144.0136  155.3239 C.ar    1  UNL1        0.0312
     20 C         139.9510  143.4130  156.6779 C.ar    1  UNL1        0.0215
     21 C         139.5032  139.8991  165.2157 C.3     1  UNL1        0.0762
     22 C         138.4344  139.2915  166.0750 C.3     1  UNL1        0.0242
     23 C         138.0738  139.9196  164.7614 C.3     1  UNL1        0.0242
     24 C         141.9299  139.8324  168.3553 C.ar    1  UNL1        0.1860
     25 C         140.7265  140.0957  167.4993 C.ar    1  UNL1        0.0352
     26 C         140.7065  139.6359  166.0717 C.ar    1  UNL1       -0.0019
     27 C         141.8899  138.9127  165.5000 C.ar    1  UNL1        0.0180
     28 C         143.0932  138.6495  166.3560 C.ar    1  UNL1        0.1001
     29 N         143.1132  139.1093  167.7836 N.ar    1  UNL1       -0.2257
     30 C         141.9697  140.7521  171.2106 C.3     1  UNL1        0.1834
     31 S         141.9498  140.2923  169.7829 S.O2    1  UNL1        0.0268
     32 O         143.2073  141.0653  169.5164 O.2     1  UNL1       -0.1671
     33 O         140.6923  139.5192  170.0494 O.2     1  UNL1       -0.1671
@<TRIPOS>BOND
     1    30    31    1
     2    31    32    2
     3    31    33    2
     4    31    24    1
     5    24    25   ar
     6    25    26   ar
     7    26    21    1
     8    21     1    1
     9     1     2   am
    10     2     3    2
    11     2     5    1
    12     5     6   ar
    13     6     7   ar
    14     7     8   ar
    15     8     9   ar
    16     9    10   ar
    17    10    11   ar
    18    11    12   ar
    19    12    13   ar
    20    13    14    1
    21    14    15   ar
    22    15    16   ar
    23    16    17   ar
    24    17    18    1
    25    17    19   ar
    26    19    20   ar
    27    21    22    1
    28    22    23    1
    29    26    27   ar
    30    27    28   ar
    31    28    29   ar
    32    29    24   ar
    33    23    21    1
    34    10     5   ar
    35    20    14   ar
    36    13     9   ar
    37     1     4    1
@<TRIPOS>MOLECULE
*****
 33 37 0 0 0
SMALL
GASTEIGER

@<TRIPOS>ATOM
      1 N         141.5009  137.7918  156.9017 N.am    1  UNL1       -0.3005
      2 C         141.8559  138.3559  158.2455 C.2     1  UNL1        0.2476
      3 O         143.2929  138.5966  158.6020 O.2     1  UNL1       -0.2701
      4 H         140.5578  137.6339  156.6677 H       1  UNL1        0.1499
      5 C         140.7739  138.6794  159.2327 C.ar    1  UNL1        0.0755
      6 C         139.4930  139.3036  158.7640 C.ar    1  UNL1        0.1035
      7 N         138.4111  139.6270  159.7512 N.ar    1  UNL1       -0.2406
      8 C         138.6099  139.3262  161.2072 C.ar    1  UNL1        0.1180
      9 C         139.8908  138.7020  161.6760 C.ar    1  UNL1        0.1036
     10 C         140.9727  138.3786  160.6888 C.ar    1  UNL1        0.0460
     11 C         142.1197  137.7707  161.4405 C.ar    1  UNL1        0.1222
     12 N         141.7465  137.7185  162.8924 N.ar    1  UNL1       -0.1635
     13 N         140.3689  138.2940  163.0379 N.ar    1  UNL1       -0.2281
     14 C         139.6039  138.4366  164.3203 C.ar    1  UNL1        0.0830
     15 C         139.5620  139.7598  165.0255 C.ar    1  UNL1        0.0215
     16 C         138.7970  139.9024  166.3078 C.ar    1  UNL1        0.0312
     17 C         138.0737  138.7217  166.8850 C.ar    1  UNL1        0.1402
     18 F         137.3087  138.8643  168.1673 F       1  UNL1       -0.2042
     19 C         138.1156  137.3986  166.1797 C.ar    1  UNL1        0.0312
     20 C         138.8807  137.2560  164.8974 C.ar    1  UNL1        0.0215
     21 C         142.5829  137.4684  155.9144 C.3     1  UNL1        0.0762
     22 C         143.6988  137.6647  154.9315 C.3     1  UNL1        0.0242
     23 C         143.0564  138.8528  155.5840 C.3     1  UNL1        0.0242
     24 C         143.4242  133.6496  156.5926 C.ar    1  UNL1        0.1860
     25 C         143.5219  135.1465  156.6050 C.ar    1  UNL1        0.0352
     26 C         142.4852  135.9717  155.9019 C.ar    1  UNL1       -0.0019
     27 C         141.3507  135.3000  155.1864 C.ar    1  UNL1        0.0180
     28 C         141.2531  133.8033  155.1739 C.ar    1  UNL1        0.1001
     29 N         142.2898  132.9781  155.8770 N.ar    1  UNL1       -0.2257
     30 C         145.4977  131.9995  157.9988 C.3     1  UNL1        0.1834
     31 S         144.4610  132.8246  157.2957 S.O2    1  UNL1        0.0268
     32 O         144.6026  131.9631  156.0759 O.2     1  UNL1       -0.1671
     33 O         144.3192  133.6860  158.5154 O.2     1  UNL1       -0.1671
@<TRIPOS>BOND
     1    30    31    1
     2    31    32    2
     3    31    33    2
     4    31    24    1
     5    24    25   ar
     6    25    26   ar
     7    26    21    1
     8    21     1    1
     9     1     2   am
    10     2     3    2
    11     2     5    1
    12     5     6   ar
    13     6     7   ar
    14     7     8   ar
    15     8     9   ar
    16     9    10   ar
    17    10    11   ar
    18    11    12   ar
    19    12    13   ar
    20    13    14    1
    21    14    15   ar
    22    15    16   ar
    23    16    17   ar
    24    17    18    1
    25    17    19   ar
    26    19    20   ar
    27    21    22    1
    28    22    23    1
    29    26    27   ar
    30    27    28   ar
    31    28    29   ar
    32    29    24   ar
    33    23    21    1
    34    10     5   ar
    35    20    14   ar
    36    13     9   ar
    37     1     4    1
@<TRIPOS>MOLECULE
*****
 33 37 0 0 0
SMALL
GASTEIGER

@<TRIPOS>ATOM
      1 N         141.7137  139.0738  159.6619 N.am    1  UNL1       -0.3005
      2 C         142.1075  138.2030  160.8180 C.2     1  UNL1        0.2476
      3 O         143.2934  137.2921  160.7011 O.2     1  UNL1       -0.2701
      4 H         140.9353  139.6717  159.7387 H       1  UNL1        0.1499
      5 C         141.3153  138.2432  162.0912 C.ar    1  UNL1        0.0755
      6 C         139.9004  137.7457  162.1102 C.ar    1  UNL1        0.1035
      7 N         139.1083  137.7859  163.3833 N.ar    1  UNL1       -0.2406
      8 C         139.7311  138.3236  164.6375 C.ar    1  UNL1        0.1180
      9 C         141.1460  138.8211  164.6185 C.ar    1  UNL1        0.1036
     10 C         141.9381  138.7809  163.3454 C.ar    1  UNL1        0.0460
     11 C         143.3019  139.3369  163.6302 C.ar    1  UNL1        0.1222
     12 N         143.3526  139.7207  165.0793 N.ar    1  UNL1       -0.1635
     13 N         142.0202  139.4019  165.6902 N.ar    1  UNL1       -0.2281
     14 C         141.6304  139.6248  167.1214 C.ar    1  UNL1        0.0830
     15 C         142.6048  139.3202  168.2203 C.ar    1  UNL1        0.0215
     16 C         142.2150  139.5431  169.6515 C.ar    1  UNL1        0.0312
     17 C         140.8507  140.0707  169.9838 C.ar    1  UNL1        0.1402
     18 F         140.4609  140.2936  171.4150 F       1  UNL1       -0.2042
     19 C         139.8763  140.3753  168.8849 C.ar    1  UNL1        0.0312
     20 C         140.2662  140.1524  167.4537 C.ar    1  UNL1        0.0215
     21 C         142.5058  139.0337  158.3888 C.3     1  UNL1        0.0762
     22 C         142.9987  138.5722  157.0494 C.3     1  UNL1        0.0242
     23 C         141.9194  137.8066  157.7558 C.3     1  UNL1        0.0242
     24 C         144.2813  142.1397  160.1065 C.ar    1  UNL1        0.1860
     25 C         143.4198  140.9266  159.9156 C.ar    1  UNL1        0.0352
     26 C         143.3672  140.2467  158.5796 C.ar    1  UNL1       -0.0019
     27 C         144.1761  140.7798  157.4344 C.ar    1  UNL1        0.0180
     28 C         145.0375  141.9928  157.6253 C.ar    1  UNL1        0.1001
     29 N         145.0901  142.6728  158.9613 N.ar    1  UNL1       -0.2257
     30 C         144.3863  143.4995  162.7785 C.3     1  UNL1        0.1834
     31 S         144.3338  142.8196  161.4425 S.O2    1  UNL1        0.0268
     32 O         145.3248  141.8008  161.9220 O.2     1  UNL1       -0.1671
     33 O         143.3428  143.8383  160.9629 O.2     1  UNL1       -0.1671
@<TRIPOS>BOND
     1    30    31    1
     2    31    32    2
     3    31    33    2
     4    31    24    1
     5    24    25   ar
     6    25    26   ar
     7    26    21    1
     8    21     1    1
     9     1     2   am
    10     2     3    2
    11     2     5    1
    12     5     6   ar
    13     6     7   ar
    14     7     8   ar
    15     8     9   ar
    16     9    10   ar
    17    10    11   ar
    18    11    12   ar
    19    12    13   ar
    20    13    14    1
    21    14    15   ar
    22    15    16   ar
    23    16    17   ar
    24    17    18    1
    25    17    19   ar
    26    19    20   ar
    27    21    22    1
    28    22    23    1
    29    26    27   ar
    30    27    28   ar
    31    28    29   ar
    32    29    24   ar
    33    23    21    1
    34    10     5   ar
    35    20    14   ar
    36    13     9   ar
    37     1     4    1
@<TRIPOS>MOLECULE
*****
 33 37 0 0 0
SMALL
GASTEIGER

@<TRIPOS>ATOM
      1 N         141.3910  139.8779  163.9866 N.am    1  UNL1       -0.3005
      2 C         141.3612  141.3557  163.7311 C.2     1  UNL1        0.2476
      3 O         142.0548  142.2939  164.6737 O.2     1  UNL1       -0.2701
      4 H         140.9357  139.2621  163.3679 H       1  UNL1        0.1499
      5 C         140.6377  141.8952  162.5330 C.ar    1  UNL1        0.0755
      6 C         139.1643  141.6606  162.3780 C.ar    1  UNL1        0.1035
      7 N         138.4409  142.2002  161.1799 N.ar    1  UNL1       -0.2406
      8 C         139.1909  142.9743  160.1368 C.ar    1  UNL1        0.1180
      9 C         140.6642  143.2090  160.2917 C.ar    1  UNL1        0.1036
     10 C         141.3877  142.6694  161.4898 C.ar    1  UNL1        0.0460
     11 C         142.8321  143.0566  161.3723 C.ar    1  UNL1        0.1222
     12 N         143.0014  143.8354  160.1016 N.ar    1  UNL1       -0.1635
     13 N         141.6615  143.9296  159.4338 N.ar    1  UNL1       -0.2281
     14 C         141.3702  144.6227  158.1358 C.ar    1  UNL1        0.0830
     15 C         142.0923  144.2113  156.8872 C.ar    1  UNL1        0.0215
     16 C         141.8009  144.9044  155.5892 C.ar    1  UNL1        0.0312
     17 C         140.7873  146.0090  155.5399 C.ar    1  UNL1        0.1402
     18 F         140.4960  146.7021  154.2419 F       1  UNL1       -0.2042
     19 C         140.0652  146.4205  156.7885 C.ar    1  UNL1        0.0312
     20 C         140.3566  145.7274  158.0865 C.ar    1  UNL1        0.0215
     21 C         142.1145  139.3383  165.1846 C.3     1  UNL1        0.0762
     22 C         143.2180  138.7710  166.0275 C.3     1  UNL1        0.0242
     23 C         143.4600  139.0712  164.5779 C.3     1  UNL1        0.0242
     24 C         140.2292  139.9834  168.6169 C.ar    1  UNL1        0.1860
     25 C         141.3235  139.9036  167.5939 C.ar    1  UNL1        0.0352
     26 C         141.0202  139.4181  166.2075 C.ar    1  UNL1       -0.0019
     27 C         139.6226  139.0123  165.8438 C.ar    1  UNL1        0.0180
     28 C         138.5284  139.0921  166.8667 C.ar    1  UNL1        0.1001
     29 N         138.8317  139.5776  168.2532 N.ar    1  UNL1       -0.2257
     30 C         140.8358  140.9544  171.3898 C.3     1  UNL1        0.1834
     31 S         140.5325  140.4689  170.0033 S.O2    1  UNL1        0.0268
     32 O         141.8593  140.9860  169.5319 O.2     1  UNL1       -0.1671
     33 O         139.2057  139.9517  170.4746 O.2     1  UNL1       -0.1671
@<TRIPOS>BOND
     1    30    31    1
     2    31    32    2
     3    31    33    2
     4    31    24    1
     5    24    25   ar
     6    25    26   ar
     7    26    21    1
     8    21     1    1
     9     1     2   am
    10     2     3    2
    11     2     5    1
    12     5     6   ar
    13     6     7   ar
    14     7     8   ar
    15     8     9   ar
    16     9    10   ar
    17    10    11   ar
    18    11    12   ar
    19    12    13   ar
    20    13    14    1
    21    14    15   ar
    22    15    16   ar
    23    16    17   ar
    24    17    18    1
    25    17    19   ar
    26    19    20   ar
    27    21    22    1
    28    22    23    1
    29    26    27   ar
    30    27    28   ar
    31    28    29   ar
    32    29    24   ar
    33    23    21    1
    34    10     5   ar
    35    20    14   ar
    36    13     9   ar
    37     1     4    1
@<TRIPOS>MOLECULE
*****
 33 37 0 0 0
SMALL
GASTEIGER

@<TRIPOS>ATOM
      1 N         138.3728  141.2461  159.4490 N.am    1  UNL1       -0.3005
      2 C         139.3207  140.1348  159.7903 C.2     1  UNL1        0.2476
      3 O         140.2939  139.6371  158.7632 O.2     1  UNL1       -0.2701
      4 H         137.7341  141.5728  160.1231 H       1  UNL1        0.1499
      5 C         139.2953  139.5213  161.1589 C.ar    1  UNL1        0.0755
      6 C         138.5546  138.2379  161.3919 C.ar    1  UNL1        0.1035
      7 N         138.5293  137.6244  162.7604 N.ar    1  UNL1       -0.2406
      8 C         139.2446  138.2942  163.8960 C.ar    1  UNL1        0.1180
      9 C         139.9853  139.5776  163.6630 C.ar    1  UNL1        0.1036
     10 C         140.0107  140.1911  162.2945 C.ar    1  UNL1        0.0460
     11 C         140.8181  141.4533  162.3672 C.ar    1  UNL1        0.1222
     12 N         141.2917  141.6197  163.7807 N.ar    1  UNL1       -0.1635
     13 N         140.7770  140.4605  164.5815 N.ar    1  UNL1       -0.2281
     14 C         141.0127  140.2255  166.0441 C.ar    1  UNL1        0.0830
     15 C         142.3788  139.8436  166.5319 C.ar    1  UNL1        0.0215
     16 C         142.6144  139.6086  167.9945 C.ar    1  UNL1        0.0312
     17 C         141.4839  139.7554  168.9694 C.ar    1  UNL1        0.1402
     18 F         141.7196  139.5204  170.4320 F       1  UNL1       -0.2042
     19 C         140.1179  140.1373  168.4817 C.ar    1  UNL1        0.0312
     20 C         139.8822  140.3723  167.0191 C.ar    1  UNL1        0.0215
     21 C         138.3982  141.8597  158.0805 C.3     1  UNL1        0.0762
     22 C         138.1316  142.0524  156.6170 C.3     1  UNL1        0.0242
     23 C         137.5663  140.8610  157.3318 C.3     1  UNL1        0.0242
     24 C         140.3860  144.6802  160.0410 C.ar    1  UNL1        0.1860
     25 C         139.5453  143.4684  159.7675 C.ar    1  UNL1        0.0352
     26 C         139.2388  143.0715  158.3538 C.ar    1  UNL1       -0.0019
     27 C         139.7732  143.8865  157.2134 C.ar    1  UNL1        0.0180
     28 C         140.6138  145.0983  157.4869 C.ar    1  UNL1        0.1001
     29 N         140.9202  145.4951  158.9006 N.ar    1  UNL1       -0.2257
     30 C         140.9986  145.4739  162.8684 C.3     1  UNL1        0.1834
     31 S         140.6924  145.0771  161.4547 S.O2    1  UNL1        0.0268
     32 O         142.1273  144.6896  161.2525 O.2     1  UNL1       -0.1671
     33 O         139.2574  145.4644  161.6568 O.2     1  UNL1       -0.1671
@<TRIPOS>BOND
     1    30    31    1
     2    31    32    2
     3    31    33    2
     4    31    24    1
     5    24    25   ar
     6    25    26   ar
     7    26    21    1
     8    21     1    1
     9     1     2   am
    10     2     3    2
    11     2     5    1
    12     5     6   ar
    13     6     7   ar
    14     7     8   ar
    15     8     9   ar
    16     9    10   ar
    17    10    11   ar
    18    11    12   ar
    19    12    13   ar
    20    13    14    1
    21    14    15   ar
    22    15    16   ar
    23    16    17   ar
    24    17    18    1
    25    17    19   ar
    26    19    20   ar
    27    21    22    1
    28    22    23    1
    29    26    27   ar
    30    27    28   ar
    31    28    29   ar
    32    29    24   ar
    33    23    21    1
    34    10     5   ar
    35    20    14   ar
    36    13     9   ar
    37     1     4    1
@<TRIPOS>MOLECULE
*****
 33 37 0 0 0
SMALL
GASTEIGER

@<TRIPOS>ATOM
      1 N         137.2002  143.1363  156.6948 N.am    1  UNL1       -0.3005
      2 C         138.5598  142.6794  157.1337 C.2     1  UNL1        0.2476
      3 O         139.5559  142.2049  156.1175 O.2     1  UNL1       -0.2701
      4 H         136.5465  143.4477  157.3618 H       1  UNL1        0.1499
      5 C         138.9234  142.6968  158.5889 C.ar    1  UNL1        0.0755
      6 C         139.7402  143.8256  159.1444 C.ar    1  UNL1        0.1035
      7 N         140.1037  143.8430  160.5996 N.ar    1  UNL1       -0.2406
      8 C         139.6503  142.7316  161.4992 C.ar    1  UNL1        0.1180
      9 C         138.8335  141.6029  160.9437 C.ar    1  UNL1        0.1036
     10 C         138.4700  141.5855  159.4886 C.ar    1  UNL1        0.0460
     11 C         137.6601  140.3500  159.2278 C.ar    1  UNL1        0.1222
     12 N         137.5231  139.6040  160.5219 N.ar    1  UNL1       -0.1635
     13 N         138.2483  140.3783  161.5823 N.ar    1  UNL1       -0.2281
     14 C         138.3674  139.9952  163.0277 C.ar    1  UNL1        0.0830
     15 C         138.1336  141.0206  164.0971 C.ar    1  UNL1        0.0215
     16 C         138.2527  140.6376  165.5425 C.ar    1  UNL1        0.0312
     17 C         138.6056  139.2290  165.9185 C.ar    1  UNL1        0.1402
     18 F         138.7247  138.8459  167.3638 F       1  UNL1       -0.2042
     19 C         138.8395  138.2036  164.8490 C.ar    1  UNL1        0.0312
     20 C         138.7204  138.5866  163.4037 C.ar    1  UNL1        0.0215
     21 C         136.8367  143.1189  155.2396 C.3     1  UNL1        0.0762
     22 C         136.6840  143.5765  153.8193 C.3     1  UNL1        0.0242
     23 C         137.3178  144.4807  154.8346 C.3     1  UNL1        0.0242
     24 C         134.3236  140.0865  155.7292 C.ar    1  UNL1        0.1860
     25 C         134.9311  141.4544  155.8296 C.ar    1  UNL1        0.0352
     26 C         136.2293  141.7511  155.1393 C.ar    1  UNL1       -0.0019
     27 C         136.9202  140.6798  154.3485 C.ar    1  UNL1        0.0180
     28 C         136.3127  139.3120  154.2482 C.ar    1  UNL1        0.1001
     29 N         135.0145  139.0154  154.9385 N.ar    1  UNL1       -0.2257
     30 C         131.7272  139.4933  157.1099 C.3     1  UNL1        0.1834
     31 S         133.0254  139.7899  156.4196 S.O2    1  UNL1        0.0268
     32 O         132.4436  141.0588  155.8706 O.2     1  UNL1       -0.1671
     33 O         133.6072  138.5210  156.9685 O.2     1  UNL1       -0.1671
@<TRIPOS>BOND
     1    30    31    1
     2    31    32    2
     3    31    33    2
     4    31    24    1
     5    24    25   ar
     6    25    26   ar
     7    26    21    1
     8    21     1    1
     9     1     2   am
    10     2     3    2
    11     2     5    1
    12     5     6   ar
    13     6     7   ar
    14     7     8   ar
    15     8     9   ar
    16     9    10   ar
    17    10    11   ar
    18    11    12   ar
    19    12    13   ar
    20    13    14    1
    21    14    15   ar
    22    15    16   ar
    23    16    17   ar
    24    17    18    1
    25    17    19   ar
    26    19    20   ar
    27    21    22    1
    28    22    23    1
    29    26    27   ar
    30    27    28   ar
    31    28    29   ar
    32    29    24   ar
    33    23    21    1
    34    10     5   ar
    35    20    14   ar
    36    13     9   ar
    37     1     4    1
@<TRIPOS>MOLECULE
*****
 33 37 0 0 0
SMALL
GASTEIGER

@<TRIPOS>ATOM
      1 N         140.5427  142.1628  163.8385 N.am    1  UNL1       -0.3005
      2 C         142.0255  141.9446  163.8995 C.2     1  UNL1        0.2476
      3 O         142.8161  142.4842  165.0543 O.2     1  UNL1       -0.2701
      4 H         140.0238  141.8086  163.0806 H       1  UNL1        0.1499
      5 C         142.7176  141.1866  162.8056 C.ar    1  UNL1        0.0755
      6 C         143.0300  139.7304  162.9838 C.ar    1  UNL1        0.1035
      7 N         143.7221  138.9726  161.8899 N.ar    1  UNL1       -0.2406
      8 C         144.1018  139.6709  160.6178 C.ar    1  UNL1        0.1180
      9 C         143.7894  141.1271  160.4396 C.ar    1  UNL1        0.1036
     10 C         143.0973  141.8850  161.5335 C.ar    1  UNL1        0.0460
     11 C         142.9203  143.3023  161.0752 C.ar    1  UNL1        0.1222
     12 N         143.5030  143.4203  159.6981 N.ar    1  UNL1       -0.1635
     13 N         144.0402  142.0760  159.3053 N.ar    1  UNL1       -0.2281
     14 C         144.7104  141.7396  158.0063 C.ar    1  UNL1        0.0830
     15 C         144.1694  140.6356  157.1470 C.ar    1  UNL1        0.0215
     16 C         144.8396  140.2991  155.8479 C.ar    1  UNL1        0.0312
     17 C         146.0509  141.0668  155.4081 C.ar    1  UNL1        0.1402
     18 F         146.7212  140.7304  154.1090 F       1  UNL1       -0.2042
     19 C         146.5919  142.1708  156.2673 C.ar    1  UNL1        0.0312
     20 C         145.9217  142.5072  157.5664 C.ar    1  UNL1        0.0215
     21 C         139.8505  142.9207  164.9323 C.3     1  UNL1        0.0762
     22 C         139.2310  144.0628  165.6819 C.3     1  UNL1        0.0242
     23 C         139.8193  144.2901  164.3209 C.3     1  UNL1        0.0242
     24 C         139.9755  140.8364  168.3073 C.ar    1  UNL1        0.1860
     25 C         140.1847  141.9426  167.3159 C.ar    1  UNL1        0.0352
     26 C         139.6414  141.8146  165.9236 C.ar    1  UNL1       -0.0019
     27 C         138.8890  140.5804  165.5227 C.ar    1  UNL1        0.0180
     28 C         138.6799  139.4743  166.5141 C.ar    1  UNL1        0.1001
     29 N         139.2232  139.6023  167.9063 N.ar    1  UNL1       -0.2257
     30 C         141.0622  141.0927  171.0918 C.3     1  UNL1        0.1834
     31 S         140.5188  140.9645  169.6996 S.O2    1  UNL1        0.0268
     32 O         139.6978  139.7847  170.1285 O.2     1  UNL1       -0.1671
     33 O         141.3399  142.1443  169.2706 O.2     1  UNL1       -0.1671
@<TRIPOS>BOND
     1    30    31    1
     2    31    32    2
     3    31    33    2
     4    31    24    1
     5    24    25   ar
     6    25    26   ar
     7    26    21    1
     8    21     1    1
     9     1     2   am
    10     2     3    2
    11     2     5    1
    12     5     6   ar
    13     6     7   ar
    14     7     8   ar
    15     8     9   ar
    16     9    10   ar
    17    10    11   ar
    18    11    12   ar
    19    12    13   ar
    20    13    14    1
    21    14    15   ar
    22    15    16   ar
    23    16    17   ar
    24    17    18    1
    25    17    19   ar
    26    19    20   ar
    27    21    22    1
    28    22    23    1
    29    26    27   ar
    30    27    28   ar
    31    28    29   ar
    32    29    24   ar
    33    23    21    1
    34    10     5   ar
    35    20    14   ar
    36    13     9   ar
    37     1     4    1
@<TRIPOS>MOLECULE
*****
 33 37 0 0 0
SMALL
GASTEIGER

@<TRIPOS>ATOM
      1 N         139.6714  143.3727  162.1104 N.am    1  UNL1       -0.3005
      2 C         140.5070  144.5034  161.5876 C.2     1  UNL1        0.2476
      3 O         140.7095  145.7340  162.4209 O.2     1  UNL1       -0.2701
      4 H         139.5385  142.5649  161.5634 H       1  UNL1        0.1499
      5 C         141.1401  144.4034  160.2314 C.ar    1  UNL1        0.0755
      6 C         140.5026  145.0802  159.0543 C.ar    1  UNL1        0.1035
      7 N         141.1357  144.9802  157.6982 N.ar    1  UNL1       -0.2406
      8 C         142.4064  144.2033  157.5191 C.ar    1  UNL1        0.1180
      9 C         143.0438  143.5265  158.6962 C.ar    1  UNL1        0.1036
     10 C         142.4107  143.6265  160.0523 C.ar    1  UNL1        0.0460
     11 C         143.2628  142.8592  161.0194 C.ar    1  UNL1        0.1222
     12 N         144.4225  142.2850  160.2609 N.ar    1  UNL1       -0.1635
     13 N         144.2872  142.6974  158.8251 N.ar    1  UNL1       -0.2281
     14 C         145.2297  142.3429  157.7134 C.ar    1  UNL1        0.0830
     15 C         146.6181  142.9104  157.6976 C.ar    1  UNL1        0.0215
     16 C         147.5607  142.5559  156.5858 C.ar    1  UNL1        0.0312
     17 C         147.1148  141.6340  155.4898 C.ar    1  UNL1        0.1402
     18 F         148.0574  141.2795  154.3781 F       1  UNL1       -0.2042
     19 C         145.7264  141.0665  155.5056 C.ar    1  UNL1        0.0312
     20 C         144.7839  141.4210  156.6174 C.ar    1  UNL1        0.0215
     21 C         139.0383  143.4726  163.4665 C.3     1  UNL1        0.0762
     22 C         138.0438  143.8146  164.5361 C.3     1  UNL1        0.0242
     23 C         137.7777  144.2043  163.1122 C.3     1  UNL1        0.0242
     24 C         142.0177  141.0568  164.4851 C.ar    1  UNL1        0.1860
     25 C         140.9770  141.7538  163.6597 C.ar    1  UNL1        0.0352
     26 C         140.0790  142.7756  164.2918 C.ar    1  UNL1       -0.0019
     27 C         140.2217  143.1004  165.7493 C.ar    1  UNL1        0.0180
     28 C         141.2624  142.4034  166.5746 C.ar    1  UNL1        0.1001
     29 N         142.1604  141.3816  165.9425 N.ar    1  UNL1       -0.2257
     30 C         143.8135  139.0132  163.2207 C.3     1  UNL1        0.1834
     31 S         142.9156  140.0350  163.8529 S.O2    1  UNL1        0.0268
     32 O         144.0922  140.9429  164.0566 O.2     1  UNL1       -0.1671
     33 O         141.7391  139.1272  163.6493 O.2     1  UNL1       -0.1671
@<TRIPOS>BOND
     1    30    31    1
     2    31    32    2
     3    31    33    2
     4    31    24    1
     5    24    25   ar
     6    25    26   ar
     7    26    21    1
     8    21     1    1
     9     1     2   am
    10     2     3    2
    11     2     5    1
    12     5     6   ar
    13     6     7   ar
    14     7     8   ar
    15     8     9   ar
    16     9    10   ar
    17    10    11   ar
    18    11    12   ar
    19    12    13   ar
    20    13    14    1
    21    14    15   ar
    22    15    16   ar
    23    16    17   ar
    24    17    18    1
    25    17    19   ar
    26    19    20   ar
    27    21    22    1
    28    22    23    1
    29    26    27   ar
    30    27    28   ar
    31    28    29   ar
    32    29    24   ar
    33    23    21    1
    34    10     5   ar
    35    20    14   ar
    36    13     9   ar
    37     1     4    1
