@<TRIPOS>MOLECULE
*****
 36 40 0 0 0
SMALL
GASTEIGER

@<TRIPOS>ATOM
      1 C         140.1997  140.5189  164.4843 C.ar    1  UNL1        0.1614
      2 C         139.1330  139.6038  163.9604 C.ar    1  UNL1        0.1373
      3 N         138.2034  138.9125  164.9133 N.ar    1  UNL1       -0.2207
      4 C         138.3406  139.1363  166.3902 C.ar    1  UNL1        0.1785
      5 N         137.5760  138.5968  167.5624 N.ar    1  UNL1       -0.2236
      6 C         138.1701  139.1785  168.8108 C.ar    1  UNL1        0.1066
      7 C         139.3020  140.0775  168.4102 C.ar    1  UNL1        0.0911
      8 C         139.4074  140.0514  166.9141 C.ar    1  UNL1        0.0999
      9 N         140.3369  140.7428  165.9612 N.ar    1  UNL1       -0.3347
     10 H         141.0371  141.3434  166.3051 H       1  UNL1        0.1675
     11 C         141.9712  142.5321  161.6782 C.ar    1  UNL1        0.0801
     12 N         140.7235  142.0340  162.3453 N.ar    1  UNL1       -0.1682
     13 N         141.1292  141.2103  163.5314 N.ar    1  UNL1       -0.2128
     14 C         142.6278  141.1992  163.5973 C.ar    1  UNL1        0.0856
     15 C         143.5856  140.5509  164.5523 C.ar    1  UNL1        0.0192
     16 C         145.0639  140.7194  164.3619 C.ar    1  UNL1        0.0015
     17 C         145.5843  141.5364  163.2166 C.ar    1  UNL1        0.0001
     18 C         144.6264  142.1847  162.2616 C.ar    1  UNL1        0.0027
     19 C         143.1481  142.0162  162.4520 C.ar    1  UNL1        0.0330
     20 C         142.2125  145.9823  156.7753 C.3     1  UNL1        0.0896
     21 N         142.1522  145.1197  158.0010 N.3     1  UNL1       -0.2715
     22 C         141.2862  145.5205  159.1583 C.3     1  UNL1        0.0725
     23 C         141.2259  144.6580  160.3840 C.3     1  UNL1        0.0233
     24 C         142.0315  143.3946  160.4525 C.3     1  UNL1        0.0448
     25 C         142.8976  142.9938  159.2951 C.3     1  UNL1        0.0233
     26 C         142.9579  143.8563  158.0694 C.3     1  UNL1        0.0725
     27 C         140.1752  140.8645  169.3420 C.2     1  UNL1        0.2488
     28 O         139.9972  140.7347  170.8257 O.2     1  UNL1       -0.2700
     29 N         141.2263  141.7813  168.7901 N.am    1  UNL1       -0.3015
     30 H         141.3432  141.8665  167.8163 H       1  UNL1        0.1497
     31 C         142.0995  142.5682  169.7219 C.3     1  UNL1        0.0841
     32 C         141.0266  143.6088  169.8484 C.3     1  UNL1        0.0222
     33 C         143.1724  141.5275  169.5954 C.3     1  UNL1        0.0222
     34 C         142.9726  143.3552  170.6538 C.3     1  UNL1        0.1549
     35 O         144.4655  143.2585  170.5439 O.3     1  UNL1       -0.3803
     36 H         144.7492  142.3602  170.7753 H       1  UNL1        0.2105
@<TRIPOS>BOND
     1    20    21    1
     2    21    22    1
     3    22    23    1
     4    23    24    1
     5    24    11    1
     6    11    12   ar
     7    12    13   ar
     8    13     1    1
     9     1     2   ar
    10     2     3   ar
    11     3     4   ar
    12     4     5   ar
    13     5     6   ar
    14     6     7   ar
    15     7    27    1
    16    27    28    2
    17    27    29   am
    18    29    31    1
    19    31    32    1
    20    31    33    1
    21    31    34    1
    22    34    35    1
    23     7     8   ar
    24     8     9   ar
    25    13    14   ar
    26    14    15   ar
    27    15    16   ar
    28    16    17   ar
    29    17    18   ar
    30    18    19   ar
    31    24    25    1
    32    25    26    1
    33    26    21    1
    34    19    11   ar
    35     9     1   ar
    36    19    14   ar
    37     8     4    1
    38    29    30    1
    39    35    36    1
    40     9    10    1
@<TRIPOS>MOLECULE
*****
 36 40 0 0 0
SMALL
GASTEIGER

@<TRIPOS>ATOM
      1 C         140.4466  140.4597  163.6837 C.ar    1  UNL1        0.1614
      2 C         139.3026  139.6984  163.0824 C.ar    1  UNL1        0.1373
      3 N         138.2779  139.0582  163.9713 N.ar    1  UNL1       -0.2207
      4 C         138.3972  139.1793  165.4616 C.ar    1  UNL1        0.1785
      5 N         137.5466  138.6591  166.5822 N.ar    1  UNL1       -0.2236
      6 C         138.1649  139.0988  167.8762 C.ar    1  UNL1        0.1066
      7 C         139.3976  139.8908  167.5553 C.ar    1  UNL1        0.0911
      8 C         139.5412  139.9406  166.0630 C.ar    1  UNL1        0.0999
      9 N         140.5659  140.5808  165.1741 N.ar    1  UNL1       -0.3347
     10 H         141.3167  141.0804  165.5688 H       1  UNL1        0.1675
     11 C         142.9513  141.5389  160.9220 C.ar    1  UNL1        0.0801
     12 N         141.9170  140.5924  161.4554 N.ar    1  UNL1       -0.1682
     13 N         141.4712  141.0999  162.7947 N.ar    1  UNL1       -0.2128
     14 C         142.2300  142.3599  163.0891 C.ar    1  UNL1        0.0856
     15 C         142.2061  143.2952  164.2615 C.ar    1  UNL1        0.0192
     16 C         143.0970  144.5018  164.2765 C.ar    1  UNL1        0.0015
     17 C         144.0118  144.7732  163.1191 C.ar    1  UNL1        0.0001
     18 C         144.0357  143.8379  161.9467 C.ar    1  UNL1        0.0027
     19 C         143.1448  142.6312  161.9317 C.ar    1  UNL1        0.0330
     20 C         145.8127  141.0426  155.6716 C.3     1  UNL1        0.0896
     21 N         145.0974  141.1667  156.9842 N.3     1  UNL1       -0.2715
     22 C         144.1596  140.0852  157.4325 C.3     1  UNL1        0.0725
     23 C         143.4442  140.2093  158.7451 C.3     1  UNL1        0.0233
     24 C         143.6667  141.4148  159.6094 C.3     1  UNL1        0.0448
     25 C         144.6045  142.4963  159.1612 C.3     1  UNL1        0.0233
     26 C         145.3198  142.3723  157.8486 C.3     1  UNL1        0.0725
     27 C         140.3241  140.5223  168.5518 C.2     1  UNL1        0.2488
     28 O         140.7625  139.7514  169.7616 O.2     1  UNL1       -0.2700
     29 N         140.8123  141.9245  168.3384 N.am    1  UNL1       -0.3015
     30 H         140.5246  142.4304  167.5443 H       1  UNL1        0.1497
     31 C         141.7387  142.5558  169.3349 C.3     1  UNL1        0.0841
     32 C         140.5598  143.0962  170.0885 C.3     1  UNL1        0.0222
     33 C         142.9177  142.0154  168.5812 C.3     1  UNL1        0.0222
     34 C         142.6652  143.1872  170.3314 C.3     1  UNL1        0.1549
     35 O         144.1375  142.9069  170.2692 O.3     1  UNL1       -0.3803
     36 H         144.2972  141.9713  170.4692 H       1  UNL1        0.2105
@<TRIPOS>BOND
     1    20    21    1
     2    21    22    1
     3    22    23    1
     4    23    24    1
     5    24    11    1
     6    11    12   ar
     7    12    13   ar
     8    13     1    1
     9     1     2   ar
    10     2     3   ar
    11     3     4   ar
    12     4     5   ar
    13     5     6   ar
    14     6     7   ar
    15     7    27    1
    16    27    28    2
    17    27    29   am
    18    29    31    1
    19    31    32    1
    20    31    33    1
    21    31    34    1
    22    34    35    1
    23     7     8   ar
    24     8     9   ar
    25    13    14   ar
    26    14    15   ar
    27    15    16   ar
    28    16    17   ar
    29    17    18   ar
    30    18    19   ar
    31    24    25    1
    32    25    26    1
    33    26    21    1
    34    19    11   ar
    35     9     1   ar
    36    19    14   ar
    37     8     4    1
    38    29    30    1
    39    35    36    1
    40     9    10    1
@<TRIPOS>MOLECULE
*****
 36 40 0 0 0
SMALL
GASTEIGER

@<TRIPOS>ATOM
      1 C         139.7139  141.0344  162.8921 C.ar    1  UNL1        0.1614
      2 C         138.6587  139.9956  162.6528 C.ar    1  UNL1        0.1373
      3 N         138.0840  139.2303  163.8078 N.ar    1  UNL1       -0.2207
      4 C         138.5646  139.5037  165.2022 C.ar    1  UNL1        0.1785
      5 N         138.1869  138.9127  166.5280 N.ar    1  UNL1       -0.2236
      6 C         139.0086  139.5861  167.5868 C.ar    1  UNL1        0.1066
      7 C         139.8943  140.5935  166.9153 C.ar    1  UNL1        0.0911
      8 C         139.6198  140.5425  165.4415 C.ar    1  UNL1        0.0999
      9 N         140.1945  141.3079  164.2866 N.ar    1  UNL1       -0.3347
     10 H         140.8871  141.9897  164.4437 H       1  UNL1        0.1675
     11 C         140.4816  143.1752  159.7468 C.ar    1  UNL1        0.0801
     12 N         139.5077  142.5695  160.7136 N.ar    1  UNL1       -0.1682
     13 N         140.2886  141.7998  161.7371 N.ar    1  UNL1       -0.2128
     14 C         141.7451  141.9297  161.4030 C.ar    1  UNL1        0.0856
     15 C         142.9782  141.3839  162.0599 C.ar    1  UNL1        0.0192
     16 C         144.3305  141.6881  161.4867 C.ar    1  UNL1        0.0015
     17 C         144.4498  142.5381  160.2566 C.ar    1  UNL1        0.0001
     18 C         143.2167  143.0840  159.5997 C.ar    1  UNL1        0.0027
     19 C         141.8644  142.7798  160.1729 C.ar    1  UNL1        0.0330
     20 C         139.0904  146.5816  155.0075 C.3     1  UNL1        0.0896
     21 N         139.4382  145.7300  156.1923 N.3     1  UNL1       -0.2715
     22 C         139.0870  144.2717  156.1968 C.3     1  UNL1        0.0725
     23 C         139.4349  143.4201  157.3816 C.3     1  UNL1        0.0233
     24 C         140.1338  144.0268  158.5620 C.3     1  UNL1        0.0448
     25 C         140.4850  145.4851  158.5575 C.3     1  UNL1        0.0233
     26 C         140.1372  146.3367  157.3727 C.3     1  UNL1        0.0725
     27 C         140.8811  141.4937  167.5979 C.2     1  UNL1        0.2488
     28 O         141.6747  142.4818  166.7954 O.2     1  UNL1       -0.2700
     29 N         141.0743  141.4059  169.0827 N.am    1  UNL1       -0.3015
     30 H         140.5534  140.7574  169.6094 H       1  UNL1        0.1497
     31 C         142.0611  142.3061  169.7652 C.3     1  UNL1        0.0841
     32 C         143.1166  141.2484  169.6342 C.3     1  UNL1        0.0222
     33 C         141.0056  143.3639  169.8962 C.3     1  UNL1        0.0222
     34 C         143.0480  143.2063  170.4477 C.3     1  UNL1        0.1549
     35 O         144.5193  142.9540  170.3013 O.3     1  UNL1       -0.3803
     36 H         144.7468  142.1121  170.7259 H       1  UNL1        0.2105
@<TRIPOS>BOND
     1    20    21    1
     2    21    22    1
     3    22    23    1
     4    23    24    1
     5    24    11    1
     6    11    12   ar
     7    12    13   ar
     8    13     1    1
     9     1     2   ar
    10     2     3   ar
    11     3     4   ar
    12     4     5   ar
    13     5     6   ar
    14     6     7   ar
    15     7    27    1
    16    27    28    2
    17    27    29   am
    18    29    31    1
    19    31    32    1
    20    31    33    1
    21    31    34    1
    22    34    35    1
    23     7     8   ar
    24     8     9   ar
    25    13    14   ar
    26    14    15   ar
    27    15    16   ar
    28    16    17   ar
    29    17    18   ar
    30    18    19   ar
    31    24    25    1
    32    25    26    1
    33    26    21    1
    34    19    11   ar
    35     9     1   ar
    36    19    14   ar
    37     8     4    1
    38    29    30    1
    39    35    36    1
    40     9    10    1
@<TRIPOS>MOLECULE
*****
 36 40 0 0 0
SMALL
GASTEIGER

@<TRIPOS>ATOM
      1 C         140.5280  139.2845  164.2078 C.ar    1  UNL1        0.1614
      2 C         139.3528  138.3969  163.9235 C.ar    1  UNL1        0.1373
      3 N         138.3449  138.1192  164.9992 N.ar    1  UNL1       -0.2207
      4 C         138.5123  138.7292  166.3593 C.ar    1  UNL1        0.1785
      5 N         137.6876  138.6374  167.6089 N.ar    1  UNL1       -0.2236
      6 C         138.3532  139.4682  168.6656 C.ar    1  UNL1        0.1066
      7 C         139.5892  140.0736  168.0690 C.ar    1  UNL1        0.0911
      8 C         139.6875  139.6168  166.6437 C.ar    1  UNL1        0.0999
      9 N         140.6954  139.8945  165.5680 N.ar    1  UNL1       -0.3347
     10 H         141.4667  140.4771  165.7547 H       1  UNL1        0.1675
     11 C         142.6692  139.6053  160.9864 C.ar    1  UNL1        0.0801
     12 N         141.4526  139.1038  161.7063 N.ar    1  UNL1       -0.1682
     13 N         141.5358  139.5622  163.1321 N.ar    1  UNL1       -0.2128
     14 C         142.8039  140.3471  163.2934 C.ar    1  UNL1        0.0856
     15 C         143.4112  141.0409  164.4765 C.ar    1  UNL1        0.0192
     16 C         144.7190  141.7614  164.3334 C.ar    1  UNL1        0.0015
     17 C         145.4195  141.7881  163.0073 C.ar    1  UNL1        0.0001
     18 C         144.8121  141.0942  161.8242 C.ar    1  UNL1        0.0027
     19 C         143.5044  140.3737  161.9673 C.ar    1  UNL1        0.0330
     20 C         143.9673  138.6973  155.1993 C.3     1  UNL1        0.0896
     21 N         143.6428  138.9243  156.6460 N.3     1  UNL1       -0.2715
     22 C         144.0083  140.2228  157.3019 C.3     1  UNL1        0.0725
     23 C         143.6837  140.4498  158.7487 C.3     1  UNL1        0.0233
     24 C         142.9937  139.3783  159.5396 C.3     1  UNL1        0.0448
     25 C         142.6282  138.0797  158.8837 C.3     1  UNL1        0.0233
     26 C         142.9527  137.8527  157.4370 C.3     1  UNL1        0.0725
     27 C         140.5570  140.9771  168.7741 C.2     1  UNL1        0.2488
     28 O         140.0530  142.1642  169.5402 O.2     1  UNL1       -0.2700
     29 N         142.0286  140.6935  168.7132 N.am    1  UNL1       -0.3015
     30 H         142.3594  139.9144  168.2103 H       1  UNL1        0.1497
     31 C         142.9963  141.5970  169.4182 C.3     1  UNL1        0.0841
     32 C         143.1427  142.4149  168.1694 C.3     1  UNL1        0.0222
     33 C         142.8500  140.7792  170.6672 C.3     1  UNL1        0.0222
     34 C         143.9641  142.5006  170.1233 C.3     1  UNL1        0.1549
     35 O         143.4563  143.6465  170.9474 O.3     1  UNL1       -0.3803
     36 H         143.0221  144.2931  170.3692 H       1  UNL1        0.2105
@<TRIPOS>BOND
     1    20    21    1
     2    21    22    1
     3    22    23    1
     4    23    24    1
     5    24    11    1
     6    11    12   ar
     7    12    13   ar
     8    13     1    1
     9     1     2   ar
    10     2     3   ar
    11     3     4   ar
    12     4     5   ar
    13     5     6   ar
    14     6     7   ar
    15     7    27    1
    16    27    28    2
    17    27    29   am
    18    29    31    1
    19    31    32    1
    20    31    33    1
    21    31    34    1
    22    34    35    1
    23     7     8   ar
    24     8     9   ar
    25    13    14   ar
    26    14    15   ar
    27    15    16   ar
    28    16    17   ar
    29    17    18   ar
    30    18    19   ar
    31    24    25    1
    32    25    26    1
    33    26    21    1
    34    19    11   ar
    35     9     1   ar
    36    19    14   ar
    37     8     4    1
    38    29    30    1
    39    35    36    1
    40     9    10    1
@<TRIPOS>MOLECULE
*****
 36 40 0 0 0
SMALL
GASTEIGER

@<TRIPOS>ATOM
      1 C         140.4843  142.9094  161.5624 C.ar    1  UNL1        0.1614
      2 C         139.6851  144.1752  161.6556 C.ar    1  UNL1        0.1373
      3 N         139.8130  145.2232  160.5900 N.ar    1  UNL1       -0.2207
      4 C         140.7401  145.0052  159.4311 C.ar    1  UNL1        0.1785
      5 N         141.0724  145.8521  158.2385 N.ar    1  UNL1       -0.2236
      6 C         142.0769  145.1096  157.4082 C.ar    1  UNL1        0.1066
      7 C         142.3655  143.8038  158.0876 C.ar    1  UNL1        0.0911
      8 C         141.5393  143.7393  159.3379 C.ar    1  UNL1        0.0999
      9 N         141.4114  142.6914  160.4034 N.ar    1  UNL1       -0.3347
     10 H         141.9360  141.8605  160.3422 H       1  UNL1        0.1675
     11 C         140.5129  140.6988  164.7526 C.ar    1  UNL1        0.0801
     12 N         140.8529  141.9736  164.0390 N.ar    1  UNL1       -0.1682
     13 N         140.3564  141.8614  162.6280 N.ar    1  UNL1       -0.2128
     14 C         139.7096  140.5173  162.4696 C.ar    1  UNL1        0.0856
     15 C         139.0451  139.8549  161.2993 C.ar    1  UNL1        0.0192
     16 C         138.4773  138.4739  161.4422 C.ar    1  UNL1        0.0015
     17 C         138.5740  137.7554  162.7554 C.ar    1  UNL1        0.0001
     18 C         139.2385  138.4178  163.9256 C.ar    1  UNL1        0.0027
     19 C         139.8063  139.7988  163.7827 C.ar    1  UNL1        0.0330
     20 C         141.7603  139.4235  170.4814 C.3     1  UNL1        0.0896
     21 N         141.4484  139.7424  169.0492 N.3     1  UNL1       -0.2715
     22 C         142.5286  139.6652  168.0113 C.3     1  UNL1        0.0725
     23 C         142.2167  139.9841  166.5791 C.3     1  UNL1        0.0233
     24 C         140.8248  140.3800  166.1848 C.3     1  UNL1        0.0448
     25 C         139.7445  140.4571  167.2228 C.3     1  UNL1        0.0233
     26 C         140.0564  140.1383  168.6549 C.3     1  UNL1        0.0725
     27 C         143.3139  142.7479  157.6020 C.2     1  UNL1        0.2488
     28 O         143.2444  141.3602  158.1671 O.2     1  UNL1       -0.2700
     29 N         144.3318  143.0798  156.5514 N.am    1  UNL1       -0.3015
     30 H         144.3774  143.9906  156.1806 H       1  UNL1        0.1497
     31 C         145.2801  142.0239  156.0659 C.3     1  UNL1        0.0841
     32 C         146.2533  142.4030  157.1424 C.3     1  UNL1        0.0222
     33 C         144.3068  141.6448  154.9893 C.3     1  UNL1        0.0222
     34 C         146.2284  140.9680  155.5804 C.3     1  UNL1        0.1549
     35 O         145.9702  139.5248  155.8974 O.3     1  UNL1       -0.3803
     36 H         146.0476  139.3851  156.8542 H       1  UNL1        0.2105
@<TRIPOS>BOND
     1    20    21    1
     2    21    22    1
     3    22    23    1
     4    23    24    1
     5    24    11    1
     6    11    12   ar
     7    12    13   ar
     8    13     1    1
     9     1     2   ar
    10     2     3   ar
    11     3     4   ar
    12     4     5   ar
    13     5     6   ar
    14     6     7   ar
    15     7    27    1
    16    27    28    2
    17    27    29   am
    18    29    31    1
    19    31    32    1
    20    31    33    1
    21    31    34    1
    22    34    35    1
    23     7     8   ar
    24     8     9   ar
    25    13    14   ar
    26    14    15   ar
    27    15    16   ar
    28    16    17   ar
    29    17    18   ar
    30    18    19   ar
    31    24    25    1
    32    25    26    1
    33    26    21    1
    34    19    11   ar
    35     9     1   ar
    36    19    14   ar
    37     8     4    1
    38    29    30    1
    39    35    36    1
    40     9    10    1
@<TRIPOS>MOLECULE
*****
 36 40 0 0 0
SMALL
GASTEIGER

@<TRIPOS>ATOM
      1 C         141.1629  143.8524  161.4593 C.ar    1  UNL1        0.1614
      2 C         140.2309  145.0269  161.5022 C.ar    1  UNL1        0.1373
      3 N         139.9006  145.7688  160.2411 N.ar    1  UNL1       -0.2207
      4 C         140.5023  145.3362  158.9370 C.ar    1  UNL1        0.1785
      5 N         140.3634  145.8690  157.5417 N.ar    1  UNL1       -0.2236
      6 C         141.2095  145.0238  156.6363 C.ar    1  UNL1        0.1066
      7 C         141.8715  143.9687  157.4721 C.ar    1  UNL1        0.0911
      8 C         141.4344  144.1618  158.8940 C.ar    1  UNL1        0.0999
      9 N         141.7647  143.4199  160.1551 N.ar    1  UNL1       -0.3347
     10 H         142.3765  142.6490  160.1269 H       1  UNL1        0.1675
     11 C         141.3100  142.1004  164.9196 C.ar    1  UNL1        0.0801
     12 N         140.5683  142.8873  163.8801 N.ar    1  UNL1       -0.1682
     13 N         141.4932  143.1105  162.7204 N.ar    1  UNL1       -0.2128
     14 C         142.8065  142.4616  163.0433 C.ar    1  UNL1        0.0856
     15 C         144.0908  142.3584  162.2753 C.ar    1  UNL1        0.0192
     16 C         145.2618  141.6310  162.8665 C.ar    1  UNL1        0.0015
     17 C         145.1485  141.0067  164.2257 C.ar    1  UNL1        0.0001
     18 C         143.8642  141.1099  164.9937 C.ar    1  UNL1        0.0027
     19 C         142.6932  141.8373  164.4025 C.ar    1  UNL1        0.0330
     20 C         139.1269  140.3181  170.2166 C.3     1  UNL1        0.0896
     21 N         139.6726  140.7636  168.8924 N.3     1  UNL1       -0.2715
     22 C         140.3835  142.0796  168.7786 C.3     1  UNL1        0.0725
     23 C         140.9292  142.5251  167.4543 C.3     1  UNL1        0.0233
     24 C         140.7642  141.6549  166.2439 C.3     1  UNL1        0.0448
     25 C         140.0533  140.3388  166.3577 C.3     1  UNL1        0.0233
     26 C         139.5075  139.8933  167.6819 C.3     1  UNL1        0.0725
     27 C         142.8064  142.9069  156.9735 C.2     1  UNL1        0.2488
     28 O         142.4520  141.4585  157.1370 O.2     1  UNL1       -0.2700
     29 N         144.0957  143.2934  156.3116 N.am    1  UNL1       -0.3015
     30 H         144.3283  144.2440  156.2043 H       1  UNL1        0.1497
     31 C         145.0305  142.2316  155.8130 C.3     1  UNL1        0.0841
     32 C         145.7159  142.2086  157.1470 C.3     1  UNL1        0.0222
     33 C         144.3452  142.2545  154.4789 C.3     1  UNL1        0.0222
     34 C         145.9655  141.1697  155.3145 C.3     1  UNL1        0.1549
     35 O         146.0936  139.8737  156.0587 O.3     1  UNL1       -0.3803
     36 H         146.4856  140.0389  156.9305 H       1  UNL1        0.2105
@<TRIPOS>BOND
     1    20    21    1
     2    21    22    1
     3    22    23    1
     4    23    24    1
     5    24    11    1
     6    11    12   ar
     7    12    13   ar
     8    13     1    1
     9     1     2   ar
    10     2     3   ar
    11     3     4   ar
    12     4     5   ar
    13     5     6   ar
    14     6     7   ar
    15     7    27    1
    16    27    28    2
    17    27    29   am
    18    29    31    1
    19    31    32    1
    20    31    33    1
    21    31    34    1
    22    34    35    1
    23     7     8   ar
    24     8     9   ar
    25    13    14   ar
    26    14    15   ar
    27    15    16   ar
    28    16    17   ar
    29    17    18   ar
    30    18    19   ar
    31    24    25    1
    32    25    26    1
    33    26    21    1
    34    19    11   ar
    35     9     1   ar
    36    19    14   ar
    37     8     4    1
    38    29    30    1
    39    35    36    1
    40     9    10    1
@<TRIPOS>MOLECULE
*****
 36 40 0 0 0
SMALL
GASTEIGER

@<TRIPOS>ATOM
      1 C         140.1954  140.6142  162.6852 C.ar    1  UNL1        0.1614
      2 C         139.1781  139.5537  162.3847 C.ar    1  UNL1        0.1373
      3 N         138.4589  138.8649  163.5065 N.ar    1  UNL1       -0.2207
      4 C         138.7570  139.2367  164.9287 C.ar    1  UNL1        0.1785
      5 N         138.2114  138.7349  166.2328 N.ar    1  UNL1       -0.2236
      6 C         138.8915  139.4853  167.3393 C.ar    1  UNL1        0.1066
      7 C         139.8574  140.4509  166.7191 C.ar    1  UNL1        0.0911
      8 C         139.7743  140.2972  165.2293 C.ar    1  UNL1        0.0999
      9 N         140.4935  140.9860  164.1076 N.ar    1  UNL1       -0.3347
     10 H         141.1611  141.6821  164.3048 H       1  UNL1        0.1675
     11 C         142.3875  141.7273  159.6817 C.ar    1  UNL1        0.0801
     12 N         141.9299  140.6793  160.6524 N.ar    1  UNL1       -0.1682
     13 N         140.9146  141.3030  161.5634 N.ar    1  UNL1       -0.2128
     14 C         140.7447  142.7366  161.1558 C.ar    1  UNL1        0.0856
     15 C         139.8787  143.8370  161.6934 C.ar    1  UNL1        0.0192
     16 C         139.9230  145.1997  161.0680 C.ar    1  UNL1        0.0015
     17 C         140.8334  145.4619  159.9050 C.ar    1  UNL1        0.0001
     18 C         141.6994  144.3614  159.3674 C.ar    1  UNL1        0.0027
     19 C         141.6551  142.9988  159.9929 C.ar    1  UNL1        0.0330
     20 C         146.4371  140.9670  155.3201 C.3     1  UNL1        0.0896
     21 N         145.4247  141.1571  156.4105 N.3     1  UNL1       -0.2715
     22 C         145.6250  142.2279  157.4416 C.3     1  UNL1        0.0725
     23 C         144.6126  142.4180  158.5320 C.3     1  UNL1        0.0233
     24 C         143.3999  141.5372  158.5914 C.3     1  UNL1        0.0448
     25 C         143.1996  140.4663  157.5602 C.3     1  UNL1        0.0233
     26 C         144.2120  140.2762  156.4699 C.3     1  UNL1        0.0725
     27 C         140.7498  141.4030  167.4588 C.2     1  UNL1        0.2488
     28 O         141.4223  142.5248  166.7245 O.2     1  UNL1       -0.2700
     29 N         140.9696  141.2334  168.9329 N.am    1  UNL1       -0.3015
     30 H         140.5281  140.4971  169.4149 H       1  UNL1        0.1497
     31 C         141.8619  142.1855  169.6726 C.3     1  UNL1        0.0841
     32 C         140.6988  143.1076  169.8888 C.3     1  UNL1        0.0222
     33 C         143.0251  141.2633  169.4563 C.3     1  UNL1        0.0222
     34 C         142.7543  143.1377  170.4123 C.3     1  UNL1        0.1549
     35 O         144.2434  142.9657  170.3580 O.3     1  UNL1       -0.3803
     36 H         144.4895  142.1373  170.7984 H       1  UNL1        0.2105
@<TRIPOS>BOND
     1    20    21    1
     2    21    22    1
     3    22    23    1
     4    23    24    1
     5    24    11    1
     6    11    12   ar
     7    12    13   ar
     8    13     1    1
     9     1     2   ar
    10     2     3   ar
    11     3     4   ar
    12     4     5   ar
    13     5     6   ar
    14     6     7   ar
    15     7    27    1
    16    27    28    2
    17    27    29   am
    18    29    31    1
    19    31    32    1
    20    31    33    1
    21    31    34    1
    22    34    35    1
    23     7     8   ar
    24     8     9   ar
    25    13    14   ar
    26    14    15   ar
    27    15    16   ar
    28    16    17   ar
    29    17    18   ar
    30    18    19   ar
    31    24    25    1
    32    25    26    1
    33    26    21    1
    34    19    11   ar
    35     9     1   ar
    36    19    14   ar
    37     8     4    1
    38    29    30    1
    39    35    36    1
    40     9    10    1
@<TRIPOS>MOLECULE
*****
 36 40 0 0 0
SMALL
GASTEIGER

@<TRIPOS>ATOM
      1 C         139.4089  140.5721  161.2365 C.ar    1  UNL1        0.1614
      2 C         138.0144  140.2210  160.8099 C.ar    1  UNL1        0.1373
      3 N         137.7429  139.8205  159.3901 N.ar    1  UNL1       -0.2207
      4 C         138.8658  139.7711  158.3969 C.ar    1  UNL1        0.1785
      5 N         138.9024  139.4155  156.9401 N.ar    1  UNL1       -0.2236
      6 C         140.3195  139.5469  156.4663 C.ar    1  UNL1        0.1066
      7 C         141.1588  139.9836  157.6303 C.ar    1  UNL1        0.0911
      8 C         140.2603  140.1222  158.8235 C.ar    1  UNL1        0.0999
      9 N         140.5319  140.5227  160.2433 N.ar    1  UNL1       -0.3347
     10 H         141.4472  140.7531  160.5233 H       1  UNL1        0.1675
     11 C         140.3588  140.9007  164.9855 C.ar    1  UNL1        0.0801
     12 N         140.2616  140.0943  163.7244 N.ar    1  UNL1       -0.1682
     13 N         139.6804  140.9726  162.6563 N.ar    1  UNL1       -0.2128
     14 C         139.4185  142.3218  163.2573 C.ar    1  UNL1        0.0856
     15 C         138.8524  143.5851  162.6797 C.ar    1  UNL1        0.0192
     16 C         138.7055  144.8038  163.5416 C.ar    1  UNL1        0.0015
     17 C         139.1248  144.7594  164.9811 C.ar    1  UNL1        0.0001
     18 C         139.6909  143.4961  165.5587 C.ar    1  UNL1        0.0027
     19 C         139.8378  142.2773  164.6968 C.ar    1  UNL1        0.0330
     20 C         142.4627  138.9602  170.2589 C.3     1  UNL1        0.0896
     21 N         141.9368  139.4453  168.9405 N.3     1  UNL1       -0.2715
     22 C         140.5551  140.0225  168.8507 C.3     1  UNL1        0.0725
     23 C         140.0292  140.5076  167.5324 C.3     1  UNL1        0.0233
     24 C         140.8848  140.4156  166.3038 C.3     1  UNL1        0.0448
     25 C         142.2665  139.8384  166.3936 C.3     1  UNL1        0.0233
     26 C         142.7924  139.3533  167.7120 C.3     1  UNL1        0.0725
     27 C         142.6370  140.2373  157.6055 C.2     1  UNL1        0.2488
     28 O         143.5723  139.2897  158.2966 O.2     1  UNL1       -0.2700
     29 N         143.1800  141.4384  156.8897 N.am    1  UNL1       -0.3015
     30 H         142.5662  142.0603  156.4361 H       1  UNL1        0.1497
     31 C         144.6582  141.6920  156.8649 C.3     1  UNL1        0.0841
     32 C         144.7696  140.9173  155.5853 C.3     1  UNL1        0.0222
     33 C         144.5468  142.4666  158.1446 C.3     1  UNL1        0.0222
     34 C         146.1364  141.9455  156.8401 C.3     1  UNL1        0.1549
     35 O         146.7043  143.1409  157.5463 O.3     1  UNL1       -0.3803
     36 H         146.3933  143.9507  157.1123 H       1  UNL1        0.2105
@<TRIPOS>BOND
     1    20    21    1
     2    21    22    1
     3    22    23    1
     4    23    24    1
     5    24    11    1
     6    11    12   ar
     7    12    13   ar
     8    13     1    1
     9     1     2   ar
    10     2     3   ar
    11     3     4   ar
    12     4     5   ar
    13     5     6   ar
    14     6     7   ar
    15     7    27    1
    16    27    28    2
    17    27    29   am
    18    29    31    1
    19    31    32    1
    20    31    33    1
    21    31    34    1
    22    34    35    1
    23     7     8   ar
    24     8     9   ar
    25    13    14   ar
    26    14    15   ar
    27    15    16   ar
    28    16    17   ar
    29    17    18   ar
    30    18    19   ar
    31    24    25    1
    32    25    26    1
    33    26    21    1
    34    19    11   ar
    35     9     1   ar
    36    19    14   ar
    37     8     4    1
    38    29    30    1
    39    35    36    1
    40     9    10    1
@<TRIPOS>MOLECULE
*****
 36 40 0 0 0
SMALL
GASTEIGER

@<TRIPOS>ATOM
      1 C         140.1965  142.0529  161.4370 C.ar    1  UNL1        0.1614
      2 C         139.4455  143.3094  161.1101 C.ar    1  UNL1        0.1373
      3 N         139.3185  143.7581  159.6844 N.ar    1  UNL1       -0.2207
      4 C         139.9426  142.9501  158.5855 C.ar    1  UNL1        0.1785
      5 N         139.9835  143.1411  157.0983 N.ar    1  UNL1       -0.2236
      6 C         140.7598  142.0025  156.5059 C.ar    1  UNL1        0.1066
      7 C         141.1987  141.1078  157.6270 C.ar    1  UNL1        0.0911
      8 C         140.6937  141.6935  158.9123 C.ar    1  UNL1        0.0999
      9 N         140.8206  141.2448  160.3380 N.ar    1  UNL1       -0.3347
     10 H         141.3135  140.4200  160.5525 H       1  UNL1        0.1675
     11 C         140.8450  141.5657  165.2326 C.ar    1  UNL1        0.0801
     12 N         140.9260  142.3953  163.9856 N.ar    1  UNL1       -0.1682
     13 N         140.3234  141.6042  162.8627 N.ar    1  UNL1       -0.2128
     14 C         139.8700  140.2856  163.4157 C.ar    1  UNL1        0.0856
     15 C         139.2053  139.1036  162.7747 C.ar    1  UNL1        0.0192
     16 C         138.8630  137.8977  163.5985 C.ar    1  UNL1        0.0015
     17 C         139.1853  137.8739  165.0633 C.ar    1  UNL1        0.0001
     18 C         139.8501  139.0560  165.7042 C.ar    1  UNL1        0.0027
     19 C         140.1924  140.2618  164.8804 C.ar    1  UNL1        0.0330
     20 C         142.7902  143.1791  170.6745 C.3     1  UNL1        0.0896
     21 N         142.3040  142.7758  169.3140 N.3     1  UNL1       -0.2715
     22 C         140.8492  142.8998  168.9703 C.3     1  UNL1        0.0725
     23 C         140.3629  142.4965  167.6098 C.3     1  UNL1        0.0233
     24 C         141.3313  141.9690  166.5931 C.3     1  UNL1        0.0448
     25 C         142.7862  141.8450  166.9368 C.3     1  UNL1        0.0233
     26 C         143.2725  142.2483  168.2973 C.3     1  UNL1        0.0725
     27 C         142.0018  139.8486  157.4874 C.2     1  UNL1        0.2488
     28 O         142.8840  139.3931  158.6118 O.2     1  UNL1       -0.2700
     29 N         141.9225  139.0448  156.2234 N.am    1  UNL1       -0.3015
     30 H         141.3435  139.3438  155.4854 H       1  UNL1        0.1497
     31 C         142.7255  137.7856  156.0838 C.3     1  UNL1        0.0841
     32 C         141.5684  136.9894  156.6102 C.3     1  UNL1        0.0222
     33 C         143.8827  138.5819  155.5574 C.3     1  UNL1        0.0222
     34 C         143.5285  136.5263  155.9442 C.3     1  UNL1        0.1549
     35 O         144.9223  136.5828  155.3926 O.3     1  UNL1       -0.3803
     36 H         144.8913  136.8595  154.4634 H       1  UNL1        0.2105
@<TRIPOS>BOND
     1    20    21    1
     2    21    22    1
     3    22    23    1
     4    23    24    1
     5    24    11    1
     6    11    12   ar
     7    12    13   ar
     8    13     1    1
     9     1     2   ar
    10     2     3   ar
    11     3     4   ar
    12     4     5   ar
    13     5     6   ar
    14     6     7   ar
    15     7    27    1
    16    27    28    2
    17    27    29   am
    18    29    31    1
    19    31    32    1
    20    31    33    1
    21    31    34    1
    22    34    35    1
    23     7     8   ar
    24     8     9   ar
    25    13    14   ar
    26    14    15   ar
    27    15    16   ar
    28    16    17   ar
    29    17    18   ar
    30    18    19   ar
    31    24    25    1
    32    25    26    1
    33    26    21    1
    34    19    11   ar
    35     9     1   ar
    36    19    14   ar
    37     8     4    1
    38    29    30    1
    39    35    36    1
    40     9    10    1
