@<TRIPOS>MOLECULE
*****
 36 39 0 0 0
SMALL
GASTEIGER

@<TRIPOS>ATOM
      1 C         142.5906  140.3570  165.2129 C.3     1  UNL1        0.0545
      2 C         141.6920  140.4416  166.4110 C.3     1  UNL1        0.0162
      3 C         140.4805  139.5989  166.1423 C.3     1  UNL1        0.0100
      4 C         140.6304  138.9934  164.7781 C.3     1  UNL1        0.0704
      5 C         141.9344  139.4620  164.2038 C.3     1  UNL1        0.0243
      6 C         140.5020  138.2579  163.4772 C.2     1  UNL1        0.2248
      7 O         140.9525  136.8308  163.3747 O.2     1  UNL1       -0.2749
      8 N         139.9232  138.9495  162.2785 N.am    1  UNL1       -0.2760
      9 C         139.4727  140.3765  162.3809 C.3     1  UNL1        0.1149
     10 C         138.8938  141.0682  161.1824 C.3     1  UNL1        0.1137
     11 N         138.7655  140.3327  159.8814 N.pl3   1  UNL1       -0.2897
     12 C         139.2160  138.9057  159.7789 C.3     1  UNL1        0.1137
     13 C         139.7948  138.2140  160.9775 C.3     1  UNL1        0.1149
     14 C         138.1866  141.0244  158.6828 C.ar    1  UNL1        0.1350
     15 C         138.6436  142.4064  158.3209 C.ar    1  UNL1        0.0550
     16 C         138.0648  143.0980  157.1223 C.ar    1  UNL1        0.1034
     17 N         137.0289  142.4075  156.2857 N.ar    1  UNL1       -0.2217
     18 C         136.5718  141.0254  156.6475 C.ar    1  UNL1        0.2363
     19 N         137.1506  140.3338  157.8461 N.ar    1  UNL1       -0.2084
     20 C         135.5359  140.3350  155.8108 C.3     1  UNL1        0.4523
     21 F         134.4999  139.6446  154.9741 F       1  UNL1       -0.1632
     22 F         136.5094  140.2535  154.6726 F       1  UNL1       -0.1632
     23 F         134.5623  140.4164  156.9490 F       1  UNL1       -0.1632
     24 C         139.2995  138.3711  165.0805 C.3     1  UNL1        0.0082
     25 C         138.1751  139.2190  165.5970 C.3     1  UNL1        0.0005
     26 C         138.9430  137.4558  165.0193 C.3     1  UNL1        0.0005
     27 N         143.9131  141.0463  165.0522 N.3     1  UNL1       -0.2975
     28 H         144.2258  141.3051  165.9880 H       1  UNL1        0.1232
     29 C         144.5755  142.1883  162.8145 C.3     1  UNL1        0.1591
     30 C         144.6804  143.4211  161.9665 C.3     1  UNL1        0.1729
     31 O         144.2280  144.7447  162.5081 O.3     1  UNL1       -0.3511
     32 C         143.6706  144.8356  163.8977 C.3     1  UNL1        0.1437
     33 C         143.5656  143.6028  164.7457 C.3     1  UNL1        0.0503
     34 C         144.0180  142.2792  164.2041 C.3     1  UNL1        0.0865
     35 C         144.1369  140.0880  161.3495 C.3     1  UNL1        0.1742
     36 O         145.0279  140.8647  162.2730 O.3     1  UNL1       -0.3496
@<TRIPOS>BOND
     1    35    36    1
     2    29    36    1
     3    29    30    1
     4    30    31    1
     5    31    32    1
     6    32    33    1
     7    33    34    1
     8    34    27    1
     9     1    27    1
    10     1     2    1
    11     2     3    1
    12     3     4    1
    13     4     6    1
    14     6     7    2
    15     6     8   am
    16     8     9    1
    17     9    10    1
    18    10    11    1
    19    11    14    1
    20    14    15   ar
    21    15    16   ar
    22    16    17   ar
    23    17    18   ar
    24    18    20    1
    25    20    21    1
    26    20    22    1
    27    20    23    1
    28    18    19   ar
    29    11    12    1
    30    12    13    1
    31     4    24    1
    32    24    25    1
    33    24    26    1
    34     4     5    1
    35    34    29    1
    36     5     1    1
    37    13     8    1
    38    19    14   ar
    39    27    28    1
@<TRIPOS>MOLECULE
*****
 36 39 0 0 0
SMALL
GASTEIGER

@<TRIPOS>ATOM
      1 C         139.5198  142.0767  164.5730 C.3     1  UNL1        0.0545
      2 C         138.1494  141.5948  164.9468 C.3     1  UNL1        0.0162
      3 C         138.1843  140.0963  165.0035 C.3     1  UNL1        0.0100
      4 C         139.5764  139.6520  164.6647 C.3     1  UNL1        0.0704
      5 C         140.4018  140.8760  164.3987 C.3     1  UNL1        0.0243
      6 C         140.8517  138.9199  164.3687 C.2     1  UNL1        0.2248
      7 O         141.6380  138.3010  165.4861 O.2     1  UNL1       -0.2749
      8 N         141.3407  138.8066  162.9551 N.am    1  UNL1       -0.2760
      9 C         140.5543  139.4255  161.8377 C.3     1  UNL1        0.1149
     10 C         141.0432  139.3123  160.4241 C.3     1  UNL1        0.1137
     11 N         142.3185  138.5802  160.1280 N.pl3   1  UNL1       -0.2897
     12 C         143.1048  137.9613  161.2454 C.3     1  UNL1        0.1137
     13 C         142.6159  138.0745  162.6590 C.3     1  UNL1        0.1149
     14 C         142.8074  138.4669  158.7144 C.ar    1  UNL1        0.1350
     15 C         143.2393  139.6951  157.9695 C.ar    1  UNL1        0.0550
     16 C         143.7282  139.5819  156.5560 C.ar    1  UNL1        0.1034
     17 N         143.7852  138.2404  155.8874 N.ar    1  UNL1       -0.2217
     18 C         143.3533  137.0121  156.6322 C.ar    1  UNL1        0.2363
     19 N         142.8644  137.1253  158.0458 N.ar    1  UNL1       -0.2084
     20 C         143.4104  135.6706  155.9636 C.3     1  UNL1        0.4523
     21 F         143.4674  134.3292  155.2949 F       1  UNL1       -0.1632
     22 F         144.6781  136.0708  155.2688 F       1  UNL1       -0.1632
     23 F         142.1426  135.2704  156.6583 F       1  UNL1       -0.1632
     24 C         139.0177  138.2751  164.8689 C.3     1  UNL1        0.0082
     25 C         138.2827  137.9438  166.1338 C.3     1  UNL1        0.0005
     26 C         139.0112  137.4527  164.3281 C.3     1  UNL1        0.0005
     27 N         139.9354  143.5080  164.4034 N.3     1  UNL1       -0.2975
     28 H         139.0837  144.0442  164.2374 H       1  UNL1        0.1232
     29 C         140.4066  144.1403  161.9278 C.3     1  UNL1        0.1591
     30 C         141.3736  144.5172  160.8448 C.3     1  UNL1        0.1729
     31 O         142.8363  144.6386  161.1543 O.3     1  UNL1       -0.3511
     32 C         143.3320  144.3831  162.5467 C.3     1  UNL1        0.1437
     33 C         142.3651  144.0063  163.6297 C.3     1  UNL1        0.0503
     34 C         140.9024  143.8849  163.3203 C.3     1  UNL1        0.0865
     35 C         138.3764  142.7005  161.1829 C.3     1  UNL1        0.1742
     36 O         138.9439  144.0189  161.6184 O.3     1  UNL1       -0.3496
@<TRIPOS>BOND
     1    35    36    1
     2    29    36    1
     3    29    30    1
     4    30    31    1
     5    31    32    1
     6    32    33    1
     7    33    34    1
     8    34    27    1
     9     1    27    1
    10     1     2    1
    11     2     3    1
    12     3     4    1
    13     4     6    1
    14     6     7    2
    15     6     8   am
    16     8     9    1
    17     9    10    1
    18    10    11    1
    19    11    14    1
    20    14    15   ar
    21    15    16   ar
    22    16    17   ar
    23    17    18   ar
    24    18    20    1
    25    20    21    1
    26    20    22    1
    27    20    23    1
    28    18    19   ar
    29    11    12    1
    30    12    13    1
    31     4    24    1
    32    24    25    1
    33    24    26    1
    34     4     5    1
    35    34    29    1
    36     5     1    1
    37    13     8    1
    38    19    14   ar
    39    27    28    1
@<TRIPOS>MOLECULE
*****
 36 39 0 0 0
SMALL
GASTEIGER

@<TRIPOS>ATOM
      1 C         140.8889  141.5420  160.1212 C.3     1  UNL1        0.0545
      2 C         142.2660  141.3426  159.5610 C.3     1  UNL1        0.0162
      3 C         142.8314  140.0873  160.1565 C.3     1  UNL1        0.0100
      4 C         141.8037  139.5109  161.0848 C.3     1  UNL1        0.0704
      5 C         140.6032  140.4100  161.0629 C.3     1  UNL1        0.0243
      6 C         140.9915  138.7117  162.0602 C.2     1  UNL1        0.2248
      7 O         140.3223  137.4442  161.6179 O.2     1  UNL1       -0.2749
      8 N         140.8483  139.1800  163.4780 N.am    1  UNL1       -0.2760
      9 C         141.5174  140.4475  163.9203 C.3     1  UNL1        0.1149
     10 C         141.3743  140.9159  165.3381 C.3     1  UNL1        0.1137
     11 N         140.5620  140.1168  166.3136 N.pl3   1  UNL1       -0.2897
     12 C         139.8929  138.8492  165.8713 C.3     1  UNL1        0.1137
     13 C         140.0360  138.3809  164.4535 C.3     1  UNL1        0.1149
     14 C         140.4189  140.5851  167.7314 C.ar    1  UNL1        0.1350
     15 C         139.2780  140.0939  168.5721 C.ar    1  UNL1        0.0550
     16 C         139.1349  140.5622  169.9899 C.ar    1  UNL1        0.1034
     17 N         140.1328  141.5219  170.5669 N.ar    1  UNL1       -0.2217
     18 C         141.2738  142.0133  169.7263 C.ar    1  UNL1        0.2363
     19 N         141.4169  141.5449  168.3085 N.ar    1  UNL1       -0.2084
     20 C         142.2717  142.9730  170.3035 C.3     1  UNL1        0.4523
     21 F         143.2696  143.9327  170.8807 F       1  UNL1       -0.1632
     22 F         141.2960  144.0975  170.1206 F       1  UNL1       -0.1632
     23 F         143.2474  141.8485  170.4864 F       1  UNL1       -0.1632
     24 C         142.8344  138.4448  161.3105 C.3     1  UNL1        0.0082
     25 C         143.0902  137.4128  160.2524 C.3     1  UNL1        0.0005
     26 C         143.4457  138.2308  162.0516 C.3     1  UNL1        0.0005
     27 N         139.9605  142.6746  159.7966 N.3     1  UNL1       -0.2975
     28 H         140.3802  143.1861  159.0203 H       1  UNL1        0.1232
     29 C         138.4800  143.4340  161.7920 C.3     1  UNL1        0.1591
     30 C         138.1371  144.4475  162.8432 C.3     1  UNL1        0.1729
     31 O         138.9319  145.7151  162.9505 O.3     1  UNL1       -0.3511
     32 C         140.0695  145.9692  162.0065 C.3     1  UNL1        0.1437
     33 C         140.4124  144.9557  160.9552 C.3     1  UNL1        0.0503
     34 C         139.6176  143.6881  160.8479 C.3     1  UNL1        0.0865
     35 C         137.5077  141.2884  162.8878 C.3     1  UNL1        0.1742
     36 O         137.6852  142.1664  161.6847 O.3     1  UNL1       -0.3496
@<TRIPOS>BOND
     1    35    36    1
     2    29    36    1
     3    29    30    1
     4    30    31    1
     5    31    32    1
     6    32    33    1
     7    33    34    1
     8    34    27    1
     9     1    27    1
    10     1     2    1
    11     2     3    1
    12     3     4    1
    13     4     6    1
    14     6     7    2
    15     6     8   am
    16     8     9    1
    17     9    10    1
    18    10    11    1
    19    11    14    1
    20    14    15   ar
    21    15    16   ar
    22    16    17   ar
    23    17    18   ar
    24    18    20    1
    25    20    21    1
    26    20    22    1
    27    20    23    1
    28    18    19   ar
    29    11    12    1
    30    12    13    1
    31     4    24    1
    32    24    25    1
    33    24    26    1
    34     4     5    1
    35    34    29    1
    36     5     1    1
    37    13     8    1
    38    19    14   ar
    39    27    28    1
@<TRIPOS>MOLECULE
*****
 36 39 0 0 0
SMALL
GASTEIGER

@<TRIPOS>ATOM
      1 C         142.6779  140.0580  164.8871 C.3     1  UNL1        0.0545
      2 C         142.7172  138.5603  164.9601 C.3     1  UNL1        0.0162
      3 C         141.3353  138.0463  164.6841 C.3     1  UNL1        0.0100
      4 C         140.4419  139.2263  164.4405 C.3     1  UNL1        0.0704
      5 C         141.2717  140.4696  164.5659 C.3     1  UNL1        0.0243
      6 C         139.3264  140.1885  164.1584 C.2     1  UNL1        0.2248
      7 O         138.3153  140.4976  165.2224 O.2     1  UNL1       -0.2749
      8 N         139.2218  140.8416  162.8120 N.am    1  UNL1       -0.2760
      9 C         140.2328  140.5325  161.7480 C.3     1  UNL1        0.1149
     10 C         140.1282  141.1856  160.4016 C.3     1  UNL1        0.1137
     11 N         139.0127  142.1478  160.1194 N.pl3   1  UNL1       -0.2897
     12 C         138.0017  142.4569  161.1835 C.3     1  UNL1        0.1137
     13 C         138.1062  141.8038  162.5298 C.3     1  UNL1        0.1149
     14 C         138.9082  142.8009  158.7731 C.ar    1  UNL1        0.1350
     15 C         139.9320  143.8113  158.3480 C.ar    1  UNL1        0.0550
     16 C         139.8275  144.4643  157.0017 C.ar    1  UNL1        0.1034
     17 N         138.6990  144.1069  156.0804 N.ar    1  UNL1       -0.2217
     18 C         137.6751  143.0965  156.5054 C.ar    1  UNL1        0.2363
     19 N         137.7796  142.4434  157.8517 N.ar    1  UNL1       -0.2084
     20 C         136.5467  142.7391  155.5841 C.3     1  UNL1        0.4523
     21 F         135.4183  142.3817  154.6627 F       1  UNL1       -0.1632
     22 F         136.6801  144.0697  154.9045 F       1  UNL1       -0.1632
     23 F         136.4133  141.4085  156.2636 F       1  UNL1       -0.1632
     24 C         139.3790  138.1842  164.2561 C.3     1  UNL1        0.0082
     25 C         138.7877  137.4963  165.4508 C.3     1  UNL1        0.0005
     26 C         138.9271  137.8000  163.4707 C.3     1  UNL1        0.0005
     27 N         143.8406  140.9819  165.0981 N.3     1  UNL1       -0.2975
     28 H         143.7958  141.2949  166.0679 H       1  UNL1        0.1232
     29 C         144.5948  142.1158  162.8855 C.3     1  UNL1        0.1591
     30 C         144.7382  143.3462  162.0396 C.3     1  UNL1        0.1729
     31 O         144.2709  144.6730  162.5603 O.3     1  UNL1       -0.3511
     32 C         143.6602  144.7695  163.9270 C.3     1  UNL1        0.1437
     33 C         143.5168  143.5391  164.7729 C.3     1  UNL1        0.0503
     34 C         143.9841  142.2123  164.2521 C.3     1  UNL1        0.0865
     35 C         144.1649  139.9708  161.4841 C.3     1  UNL1        0.1742
     36 O         145.0620  140.7890  162.3648 O.3     1  UNL1       -0.3496
@<TRIPOS>BOND
     1    35    36    1
     2    29    36    1
     3    29    30    1
     4    30    31    1
     5    31    32    1
     6    32    33    1
     7    33    34    1
     8    34    27    1
     9     1    27    1
    10     1     2    1
    11     2     3    1
    12     3     4    1
    13     4     6    1
    14     6     7    2
    15     6     8   am
    16     8     9    1
    17     9    10    1
    18    10    11    1
    19    11    14    1
    20    14    15   ar
    21    15    16   ar
    22    16    17   ar
    23    17    18   ar
    24    18    20    1
    25    20    21    1
    26    20    22    1
    27    20    23    1
    28    18    19   ar
    29    11    12    1
    30    12    13    1
    31     4    24    1
    32    24    25    1
    33    24    26    1
    34     4     5    1
    35    34    29    1
    36     5     1    1
    37    13     8    1
    38    19    14   ar
    39    27    28    1
@<TRIPOS>MOLECULE
*****
 36 39 0 0 0
SMALL
GASTEIGER

@<TRIPOS>ATOM
      1 C         141.1444  141.8267  164.6624 C.3     1  UNL1        0.0545
      2 C         141.4502  140.9244  165.8210 C.3     1  UNL1        0.0162
      3 C         140.8829  139.5697  165.5160 C.3     1  UNL1        0.0100
      4 C         140.2264  139.6347  164.1688 C.3     1  UNL1        0.0704
      5 C         140.3880  141.0296  163.6413 C.3     1  UNL1        0.0243
      6 C         139.5047  139.3979  162.8755 C.2     1  UNL1        0.2248
      7 O         138.0088  139.4956  162.8225 O.2     1  UNL1       -0.2749
      8 N         140.2788  139.0632  161.6349 N.am    1  UNL1       -0.2760
      9 C         141.7746  138.9655  161.6879 C.3     1  UNL1        0.1149
     10 C         142.5488  138.6309  160.4475 C.3     1  UNL1        0.1137
     11 N         141.8271  138.3940  159.1540 N.pl3   1  UNL1       -0.2897
     12 C         140.3313  138.4917  159.1010 C.3     1  UNL1        0.1137
     13 C         139.5571  138.8264  160.3415 C.3     1  UNL1        0.1149
     14 C         142.6013  138.0594  157.9136 C.ar    1  UNL1        0.1350
     15 C         143.1950  139.1568  157.0811 C.ar    1  UNL1        0.0550
     16 C         143.9692  138.8222  155.8407 C.ar    1  UNL1        0.1034
     17 N         144.1496  137.3901  155.4328 N.ar    1  UNL1       -0.2217
     18 C         143.5559  136.2926  156.2652 C.ar    1  UNL1        0.2363
     19 N         142.7817  136.6272  157.5057 N.ar    1  UNL1       -0.2084
     20 C         143.7364  134.8605  155.8572 C.3     1  UNL1        0.4523
     21 F         143.9168  133.4284  155.4492 F       1  UNL1       -0.1632
     22 F         144.0053  134.4876  157.2850 F       1  UNL1       -0.1632
     23 F         143.4675  135.2334  154.4294 F       1  UNL1       -0.1632
     24 C         139.9140  138.1904  164.4260 C.3     1  UNL1        0.0082
     25 C         141.0259  137.1885  164.5252 C.3     1  UNL1        0.0005
     26 C         139.0804  137.6844  164.5592 C.3     1  UNL1        0.0005
     27 N         141.5276  143.2722  164.5455 N.3     1  UNL1       -0.2975
     28 H         141.1037  143.7542  165.3381 H       1  UNL1        0.1232
     29 C         139.9455  144.9342  163.3269 C.3     1  UNL1        0.1591
     30 C         139.5747  145.7113  162.0987 C.3     1  UNL1        0.1729
     31 O         140.4151  145.6037  160.8609 O.3     1  UNL1       -0.3511
     32 C         141.6262  144.7188  160.8512 C.3     1  UNL1        0.1437
     33 C         141.9970  143.9417  162.0794 C.3     1  UNL1        0.0503
     34 C         141.1567  144.0494  163.3172 C.3     1  UNL1        0.0865
     35 C         137.8887  144.1786  164.7228 C.3     1  UNL1        0.1742
     36 O         139.1052  145.0419  164.5647 O.3     1  UNL1       -0.3496
@<TRIPOS>BOND
     1    35    36    1
     2    29    36    1
     3    29    30    1
     4    30    31    1
     5    31    32    1
     6    32    33    1
     7    33    34    1
     8    34    27    1
     9     1    27    1
    10     1     2    1
    11     2     3    1
    12     3     4    1
    13     4     6    1
    14     6     7    2
    15     6     8   am
    16     8     9    1
    17     9    10    1
    18    10    11    1
    19    11    14    1
    20    14    15   ar
    21    15    16   ar
    22    16    17   ar
    23    17    18   ar
    24    18    20    1
    25    20    21    1
    26    20    22    1
    27    20    23    1
    28    18    19   ar
    29    11    12    1
    30    12    13    1
    31     4    24    1
    32    24    25    1
    33    24    26    1
    34     4     5    1
    35    34    29    1
    36     5     1    1
    37    13     8    1
    38    19    14   ar
    39    27    28    1
@<TRIPOS>MOLECULE
*****
 36 39 0 0 0
SMALL
GASTEIGER

@<TRIPOS>ATOM
      1 C         139.0197  140.4693  165.5489 C.3     1  UNL1        0.0545
      2 C         139.0604  139.4429  166.6420 C.3     1  UNL1        0.0162
      3 C         140.4986  139.1272  166.9281 C.3     1  UNL1        0.0100
      4 C         141.3468  139.9585  166.0119 C.3     1  UNL1        0.0704
      5 C         140.4328  140.7879  165.1595 C.3     1  UNL1        0.0243
      6 C         142.4335  140.6464  165.2401 C.2     1  UNL1        0.2248
      7 O         143.3220  141.6438  165.9225 O.2     1  UNL1       -0.2749
      8 N         142.6318  140.3369  163.7858 N.am    1  UNL1       -0.2760
      9 C         141.7433  139.3395  163.1034 C.3     1  UNL1        0.1149
     10 C         141.9415  139.0300  161.6491 C.3     1  UNL1        0.1137
     11 N         143.0282  139.7179  160.8772 N.pl3   1  UNL1       -0.2897
     12 C         143.9167  140.7153  161.5596 C.3     1  UNL1        0.1137
     13 C         143.7185  141.0248  163.0139 C.3     1  UNL1        0.1149
     14 C         143.2264  139.4083  159.4229 C.ar    1  UNL1        0.1350
     15 C         143.9523  140.3808  158.5413 C.ar    1  UNL1        0.0550
     16 C         144.1505  140.0712  157.0870 C.ar    1  UNL1        0.1034
     17 N         143.6228  138.7892  156.5145 N.ar    1  UNL1       -0.2217
     18 C         142.8969  137.8167  157.3961 C.ar    1  UNL1        0.2363
     19 N         142.6987  138.1262  158.8504 N.ar    1  UNL1       -0.2084
     20 C         142.3693  136.5346  156.8235 C.3     1  UNL1        0.4523
     21 F         141.8416  135.2526  156.2508 F       1  UNL1       -0.1632
     22 F         143.7653  136.1213  156.4626 F       1  UNL1       -0.1632
     23 F         140.9733  136.9480  157.1844 F       1  UNL1       -0.1632
     24 C         142.4879  139.2728  166.7029 C.3     1  UNL1        0.0082
     25 C         142.6823  139.4445  168.1804 C.3     1  UNL1        0.0005
     26 C         143.2131  138.6799  166.4011 C.3     1  UNL1        0.0005
     27 N         137.7831  141.0714  164.9503 N.3     1  UNL1       -0.2975
     28 H         137.2205  140.2976  164.5964 H       1  UNL1        0.1232
     29 C         138.0315  141.5962  162.4179 C.3     1  UNL1        0.1591
     30 C         138.1468  142.5931  161.3031 C.3     1  UNL1        0.1729
     31 O         138.1289  144.0621  161.6058 O.3     1  UNL1       -0.3511
     32 C         137.9958  144.5343  163.0233 C.3     1  UNL1        0.1437
     33 C         137.8805  143.5373  164.1381 C.3     1  UNL1        0.0503
     34 C         137.8984  142.0683  163.8354 C.3     1  UNL1        0.0865
     35 C         137.5546  139.6284  160.7900 C.3     1  UNL1        0.1742
     36 O         138.0494  140.1272  162.1152 O.3     1  UNL1       -0.3496
@<TRIPOS>BOND
     1    35    36    1
     2    29    36    1
     3    29    30    1
     4    30    31    1
     5    31    32    1
     6    32    33    1
     7    33    34    1
     8    34    27    1
     9     1    27    1
    10     1     2    1
    11     2     3    1
    12     3     4    1
    13     4     6    1
    14     6     7    2
    15     6     8   am
    16     8     9    1
    17     9    10    1
    18    10    11    1
    19    11    14    1
    20    14    15   ar
    21    15    16   ar
    22    16    17   ar
    23    17    18   ar
    24    18    20    1
    25    20    21    1
    26    20    22    1
    27    20    23    1
    28    18    19   ar
    29    11    12    1
    30    12    13    1
    31     4    24    1
    32    24    25    1
    33    24    26    1
    34     4     5    1
    35    34    29    1
    36     5     1    1
    37    13     8    1
    38    19    14   ar
    39    27    28    1
@<TRIPOS>MOLECULE
*****
 36 39 0 0 0
SMALL
GASTEIGER

@<TRIPOS>ATOM
      1 C         140.9519  142.1598  165.7795 C.3     1  UNL1        0.0545
      2 C         140.3528  141.0790  166.6297 C.3     1  UNL1        0.0162
      3 C         141.1084  139.8101  166.3671 C.3     1  UNL1        0.0100
      4 C         142.1746  140.1067  165.3545 C.3     1  UNL1        0.0704
      5 C         142.0778  141.5589  164.9914 C.3     1  UNL1        0.0243
      6 C         143.3106  140.0995  164.3751 C.2     1  UNL1        0.2248
      7 O         144.6886  140.4887  164.8218 O.2     1  UNL1       -0.2749
      8 N         143.0686  139.7030  162.9488 N.am    1  UNL1       -0.2760
      9 C         141.6906  139.3137  162.5020 C.3     1  UNL1        0.1149
     10 C         141.4486  138.9172  161.0758 C.3     1  UNL1        0.1137
     11 N         142.5845  138.9100  160.0962 N.pl3   1  UNL1       -0.2897
     12 C         143.9626  139.2992  160.5430 C.3     1  UNL1        0.1137
     13 C         144.2046  139.6957  161.9692 C.3     1  UNL1        0.1149
     14 C         142.3425  138.5134  158.6700 C.ar    1  UNL1        0.1350
     15 C         141.4308  139.3348  157.8075 C.ar    1  UNL1        0.0550
     16 C         141.1887  138.9383  156.3813 C.ar    1  UNL1        0.1034
     17 N         141.8585  137.7203  155.8175 N.ar    1  UNL1       -0.2217
     18 C         142.7703  136.8988  156.6800 C.ar    1  UNL1        0.2363
     19 N         143.0123  137.2954  158.1062 N.ar    1  UNL1       -0.2084
     20 C         143.4400  135.6808  156.1161 C.3     1  UNL1        0.4523
     21 F         144.1097  134.4629  155.5523 F       1  UNL1       -0.1632
     22 F         142.3898  134.8129  156.7436 F       1  UNL1       -0.1632
     23 F         144.4902  136.5488  155.4887 F       1  UNL1       -0.1632
     24 C         142.5088  138.6531  165.5129 C.3     1  UNL1        0.0082
     25 C         143.6962  138.2413  166.3317 C.3     1  UNL1        0.0005
     26 C         142.1051  137.8187  165.1820 C.3     1  UNL1        0.0005
     27 N         140.5038  143.5903  165.7267 N.3     1  UNL1       -0.2975
     28 H         139.8459  143.7214  166.4951 H       1  UNL1        0.1232
     29 C         140.6017  145.0092  163.5525 C.3     1  UNL1        0.1591
     30 C         139.9369  145.5418  162.3178 C.3     1  UNL1        0.1729
     31 O         138.5094  145.1880  162.0226 O.3     1  UNL1       -0.3511
     32 C         137.7467  144.3016  162.9621 C.3     1  UNL1        0.1437
     33 C         138.4115  143.7691  164.1968 C.3     1  UNL1        0.0503
     34 C         139.8390  144.1229  164.4920 C.3     1  UNL1        0.0865
     35 C         143.1393  144.6928  163.0937 C.3     1  UNL1        0.1742
     36 O         142.0291  145.3630  163.8476 O.3     1  UNL1       -0.3496
@<TRIPOS>BOND
     1    35    36    1
     2    29    36    1
     3    29    30    1
     4    30    31    1
     5    31    32    1
     6    32    33    1
     7    33    34    1
     8    34    27    1
     9     1    27    1
    10     1     2    1
    11     2     3    1
    12     3     4    1
    13     4     6    1
    14     6     7    2
    15     6     8   am
    16     8     9    1
    17     9    10    1
    18    10    11    1
    19    11    14    1
    20    14    15   ar
    21    15    16   ar
    22    16    17   ar
    23    17    18   ar
    24    18    20    1
    25    20    21    1
    26    20    22    1
    27    20    23    1
    28    18    19   ar
    29    11    12    1
    30    12    13    1
    31     4    24    1
    32    24    25    1
    33    24    26    1
    34     4     5    1
    35    34    29    1
    36     5     1    1
    37    13     8    1
    38    19    14   ar
    39    27    28    1
@<TRIPOS>MOLECULE
*****
 36 39 0 0 0
SMALL
GASTEIGER

@<TRIPOS>ATOM
      1 C         139.6936  141.0729  159.9860 C.3     1  UNL1        0.0545
      2 C         139.3857  139.7729  159.3040 C.3     1  UNL1        0.0162
      3 C         140.5451  138.8473  159.5254 C.3     1  UNL1        0.0100
      4 C         141.5696  139.5752  160.3443 C.3     1  UNL1        0.0704
      5 C         141.0433  140.9507  160.6289 C.3     1  UNL1        0.0243
      6 C         142.7559  140.0358  161.1383 C.2     1  UNL1        0.2248
      7 O         144.0571  140.3180  160.4475 O.2     1  UNL1       -0.2749
      8 N         142.6410  140.2143  162.6233 N.am    1  UNL1       -0.2760
      9 C         141.3398  139.9321  163.3141 C.3     1  UNL1        0.1149
     10 C         141.2248  140.1105  164.7990 C.3     1  UNL1        0.1137
     11 N         142.4110  140.5711  165.5931 N.pl3   1  UNL1       -0.2897
     12 C         143.7123  140.8533  164.9023 C.3     1  UNL1        0.1137
     13 C         143.8272  140.6748  163.4174 C.3     1  UNL1        0.1149
     14 C         142.2961  140.7495  167.0780 C.ar    1  UNL1        0.1350
     15 C         142.6543  139.6212  167.9990 C.ar    1  UNL1        0.0550
     16 C         142.5393  139.7996  169.4839 C.ar    1  UNL1        0.1034
     17 N         142.0661  141.1065  170.0478 N.ar    1  UNL1       -0.2217
     18 C         141.7078  142.2350  169.1268 C.ar    1  UNL1        0.2363
     19 N         141.8228  142.0565  167.6419 N.ar    1  UNL1       -0.2084
     20 C         141.2346  143.5418  169.6907 C.3     1  UNL1        0.4523
     21 F         140.7613  144.8487  170.2547 F       1  UNL1       -0.1632
     22 F         139.9936  143.4541  168.8527 F       1  UNL1       -0.1632
     23 F         142.4755  143.6296  170.5288 F       1  UNL1       -0.1632
     24 C         142.3438  138.2961  160.2256 C.3     1  UNL1        0.0082
     25 C         142.7378  137.7804  158.8732 C.3     1  UNL1        0.0005
     26 C         142.6930  137.6453  160.8762 C.3     1  UNL1        0.0005
     27 N         138.8074  142.2827  160.0193 N.3     1  UNL1       -0.2975
     28 H         139.0242  142.8295  159.1860 H       1  UNL1        0.1232
     29 C         138.0416  142.9621  162.4072 C.3     1  UNL1        0.1591
     30 C         138.1033  143.9051  163.5720 C.3     1  UNL1        0.1729
     31 O         138.9923  145.1118  163.5138 O.3     1  UNL1       -0.3511
     32 C         139.8198  145.3755  162.2908 C.3     1  UNL1        0.1437
     33 C         139.7581  144.4325  161.1260 C.3     1  UNL1        0.0503
     34 C         138.8690  143.2258  161.1842 C.3     1  UNL1        0.0865
     35 C         137.6436  140.4923  163.1082 C.3     1  UNL1        0.1742
     36 O         137.1525  141.7554  162.4654 O.3     1  UNL1       -0.3496
@<TRIPOS>BOND
     1    35    36    1
     2    29    36    1
     3    29    30    1
     4    30    31    1
     5    31    32    1
     6    32    33    1
     7    33    34    1
     8    34    27    1
     9     1    27    1
    10     1     2    1
    11     2     3    1
    12     3     4    1
    13     4     6    1
    14     6     7    2
    15     6     8   am
    16     8     9    1
    17     9    10    1
    18    10    11    1
    19    11    14    1
    20    14    15   ar
    21    15    16   ar
    22    16    17   ar
    23    17    18   ar
    24    18    20    1
    25    20    21    1
    26    20    22    1
    27    20    23    1
    28    18    19   ar
    29    11    12    1
    30    12    13    1
    31     4    24    1
    32    24    25    1
    33    24    26    1
    34     4     5    1
    35    34    29    1
    36     5     1    1
    37    13     8    1
    38    19    14   ar
    39    27    28    1
@<TRIPOS>MOLECULE
*****
 36 39 0 0 0
SMALL
GASTEIGER

@<TRIPOS>ATOM
      1 C         141.3394  142.3275  164.4129 C.3     1  UNL1        0.0545
      2 C         142.1538  143.5766  164.2506 C.3     1  UNL1        0.0162
      3 C         143.5159  143.1817  163.7619 C.3     1  UNL1        0.0100
      4 C         143.5433  141.6885  163.6222 C.3     1  UNL1        0.0704
      5 C         142.1982  141.1606  164.0246 C.3     1  UNL1        0.0243
      6 C         143.8660  140.2425  163.3883 C.2     1  UNL1        0.2248
      7 O         144.6001  139.4588  164.4356 O.2     1  UNL1       -0.2749
      8 N         143.4546  139.5800  162.1068 N.am    1  UNL1       -0.2760
      9 C         142.7205  140.3637  161.0595 C.3     1  UNL1        0.1149
     10 C         142.3090  139.7014  159.7781 C.3     1  UNL1        0.1137
     11 N         142.6317  138.2553  159.5440 N.pl3   1  UNL1       -0.2897
     12 C         143.3658  137.4716  160.5913 C.3     1  UNL1        0.1137
     13 C         143.7772  138.1340  161.8728 C.3     1  UNL1        0.1149
     14 C         142.2202  137.5930  158.2626 C.ar    1  UNL1        0.1350
     15 C         141.0441  138.1155  157.4922 C.ar    1  UNL1        0.0550
     16 C         140.6327  137.4531  156.2108 C.ar    1  UNL1        0.1034
     17 N         141.3975  136.2682  155.6999 N.ar    1  UNL1       -0.2217
     18 C         142.5736  135.7456  156.4703 C.ar    1  UNL1        0.2363
     19 N         142.9851  136.4080  157.7517 N.ar    1  UNL1       -0.2084
     20 C         143.3383  134.5607  155.9593 C.3     1  UNL1        0.4523
     21 F         144.1031  133.3758  155.4483 F       1  UNL1       -0.1632
     22 F         142.6041  133.6727  156.9196 F       1  UNL1       -0.1632
     23 F         144.0726  135.4487  154.9989 F       1  UNL1       -0.1632
     24 C         144.9558  141.9142  163.1710 C.3     1  UNL1        0.0082
     25 C         145.2260  142.5073  161.8200 C.3     1  UNL1        0.0005
     26 C         145.8375  141.7554  163.5787 C.3     1  UNL1        0.0005
     27 N         139.9161  142.2575  164.8813 N.3     1  UNL1       -0.2975
     28 H         139.6973  143.1639  165.2948 H       1  UNL1        0.1232
     29 C         138.6211  140.0800  165.4572 C.3     1  UNL1        0.1591
     30 C         138.2104  139.0383  166.4553 C.3     1  UNL1        0.1729
     31 O         138.6840  139.1323  167.8754 O.3     1  UNL1       -0.3511
     32 C         139.5682  140.2679  168.2976 C.3     1  UNL1        0.1437
     33 C         139.9789  141.3096  167.2996 C.3     1  UNL1        0.0503
     34 C         139.5054  141.2157  165.8794 C.3     1  UNL1        0.0865
     35 C         138.4766  138.7751  163.2153 C.3     1  UNL1        0.1742
     36 O         138.1475  139.9860  164.0371 O.3     1  UNL1       -0.3496
@<TRIPOS>BOND
     1    35    36    1
     2    29    36    1
     3    29    30    1
     4    30    31    1
     5    31    32    1
     6    32    33    1
     7    33    34    1
     8    34    27    1
     9     1    27    1
    10     1     2    1
    11     2     3    1
    12     3     4    1
    13     4     6    1
    14     6     7    2
    15     6     8   am
    16     8     9    1
    17     9    10    1
    18    10    11    1
    19    11    14    1
    20    14    15   ar
    21    15    16   ar
    22    16    17   ar
    23    17    18   ar
    24    18    20    1
    25    20    21    1
    26    20    22    1
    27    20    23    1
    28    18    19   ar
    29    11    12    1
    30    12    13    1
    31     4    24    1
    32    24    25    1
    33    24    26    1
    34     4     5    1
    35    34    29    1
    36     5     1    1
    37    13     8    1
    38    19    14   ar
    39    27    28    1
