@<TRIPOS>MOLECULE
*****
 44 48 0 0 0
SMALL
GASTEIGER

@<TRIPOS>ATOM
      1 N         140.1342  143.0215  164.0619 N.pl3   1  UNL1       -0.3035
      2 C         138.8864  143.3633  163.3028 C.3     1  UNL1        0.1082
      3 C         138.9731  144.1718  162.0424 C.3     1  UNL1        0.0938
      4 N         140.3075  144.6386  161.5410 N.3     1  UNL1       -0.2695
      5 C         141.5553  144.2968  162.3001 C.3     1  UNL1        0.0938
      6 C         141.4687  143.4883  163.5605 C.3     1  UNL1        0.1082
      7 C         140.3294  142.0241  167.8982 C.ar    1  UNL1       -0.0209
      8 C         140.4160  142.8326  166.6377 C.ar    1  UNL1        0.0118
      9 C         140.0475  142.2130  165.3224 C.ar    1  UNL1        0.0655
     10 C         139.5923  140.7847  165.2674 C.ar    1  UNL1        0.0941
     11 N         139.2237  140.1651  163.9521 N.ar    1  UNL1       -0.2484
     12 C         138.7685  138.7369  163.8972 C.ar    1  UNL1        0.0594
     13 C         138.6818  137.9284  165.1577 C.ar    1  UNL1        0.0147
     14 C         139.0504  138.5480  166.4730 C.ar    1  UNL1        0.0027
     15 C         139.5056  139.9762  166.5279 C.ar    1  UNL1        0.0186
     16 C         139.8742  140.5959  167.8433 C.ar    1  UNL1       -0.0027
     17 C         140.6979  142.6438  169.2136 C.3     1  UNL1        0.0264
     18 C         142.1407  142.8571  169.5641 C.3     1  UNL1        0.0047
     19 C         142.9171  140.4192  170.0156 C.3     1  UNL1        0.0000
     20 C         143.1334  141.7512  169.3605 C.3     1  UNL1        0.0003
     21 C         138.3999  138.1172  162.5818 C.3     1  UNL1        0.0517
     22 C         138.9171  138.7075  161.3035 C.3     1  UNL1        0.0480
     23 C         138.0927  139.7112  160.5534 C.2     1  UNL1        0.0507
     24 O         138.0426  139.6709  159.0547 O.co2   1  UNL1       -0.5492
     25 O         137.3182  140.7553  161.3019 O.co2   1  UNL1       -0.5492
     26 C         140.3942  145.4471  160.2805 C.3     1  UNL1        0.0769
     27 C         141.4664  145.1536  159.2735 C.3     1  UNL1        0.0437
     28 C         141.7839  143.7338  158.9082 C.ar    1  UNL1       -0.0206
     29 C         140.6899  142.8136  158.4537 C.ar    1  UNL1       -0.0011
     30 C         141.0075  141.3939  158.0885 C.ar    1  UNL1        0.0366
     31 C         142.4191  140.8943  158.1778 C.ar    1  UNL1        0.1385
     32 C         143.5130  141.8144  158.6323 C.ar    1  UNL1        0.0366
     33 C         143.1954  143.2342  158.9975 C.ar    1  UNL1       -0.0011
     34 O         142.7367  139.4745  157.8126 O.3     1  UNL1       -0.4754
     35 C         142.7077  138.4051  158.8641 C.3     1  UNL1        0.2068
     36 C         142.5510  138.7778  160.3086 C.3     1  UNL1        0.0646
     37 C         143.7285  138.7019  161.2348 C.3     1  UNL1        0.0759
     38 N         143.6194  139.2367  162.6319 N.3     1  UNL1       -0.2726
     39 C         142.8797  138.3678  163.6055 C.3     1  UNL1        0.0721
     40 C         142.6024  138.6174  165.0584 C.3     1  UNL1        0.0173
     41 C         142.9963  139.7974  165.8966 C.3     1  UNL1        0.0015
     42 C         143.7648  141.0193  165.4888 C.3     1  UNL1        0.0015
     43 C         144.3292  141.3630  164.1422 C.3     1  UNL1        0.0173
     44 C         144.2645  140.5697  162.8708 C.3     1  UNL1        0.0721
@<TRIPOS>UNITY_ATOM_ATTR
24 1
charge -1
@<TRIPOS>BOND
     1    19    20    1
     2    20    18    1
     3    18    17    1
     4    17     7    1
     5     7     8   ar
     6     8     9   ar
     7     9     1    1
     8     1     2    1
     9     2     3    1
    10     3     4    1
    11     4    26    1
    12    26    27    1
    13    27    28    1
    14    28    29   ar
    15    29    30   ar
    16    30    31   ar
    17    31    34    1
    18    34    35    1
    19    35    36    1
    20    36    37    1
    21    37    38    1
    22    38    39    1
    23    39    40    1
    24    40    41    1
    25    41    42    1
    26    42    43    1
    27    43    44    1
    28    31    32   ar
    29    32    33   ar
    30     4     5    1
    31     5     6    1
    32     9    10   ar
    33    10    11   ar
    34    11    12   ar
    35    12    21    1
    36    21    22    1
    37    22    23    1
    38    23    24   ar
    39    23    25   ar
    40    12    13   ar
    41    13    14   ar
    42    14    15   ar
    43    15    16   ar
    44    16     7   ar
    45     6     1    1
    46    15    10   ar
    47    33    28   ar
    48    44    38    1
@<TRIPOS>MOLECULE
*****
 44 48 0 0 0
SMALL
GASTEIGER

@<TRIPOS>ATOM
      1 N         140.5727  142.7678  164.9552 N.pl3   1  UNL1       -0.3035
      2 C         139.2163  142.8643  164.3222 C.3     1  UNL1        0.1082
      3 C         138.9364  143.9331  163.3077 C.3     1  UNL1        0.0938
      4 N         140.0130  144.9054  162.9261 N.3     1  UNL1       -0.2695
      5 C         141.3695  144.8089  163.5591 C.3     1  UNL1        0.0938
      6 C         141.6494  143.7401  164.5737 C.3     1  UNL1        0.1082
      7 C         140.2870  140.5283  168.2191 C.ar    1  UNL1       -0.0209
      8 C         140.0071  141.5971  167.2046 C.ar    1  UNL1        0.0118
      9 C         140.8526  141.6989  165.9698 C.ar    1  UNL1        0.0655
     10 C         141.9780  140.7320  165.7495 C.ar    1  UNL1        0.0941
     11 N         142.8235  140.8338  164.5147 N.ar    1  UNL1       -0.2484
     12 C         143.9488  139.8669  164.2944 C.ar    1  UNL1        0.0594
     13 C         144.2287  138.7981  165.3090 C.ar    1  UNL1        0.0147
     14 C         143.3833  138.6962  166.5438 C.ar    1  UNL1        0.0027
     15 C         142.2579  139.6632  166.7640 C.ar    1  UNL1        0.0186
     16 C         141.4124  139.5613  167.9989 C.ar    1  UNL1       -0.0027
     17 C         139.4415  140.4264  169.4540 C.3     1  UNL1        0.0264
     18 C         139.2550  141.6252  170.3361 C.3     1  UNL1        0.0047
     19 C         141.6989  141.7261  171.2119 C.3     1  UNL1        0.0000
     20 C         140.4452  142.4249  170.7763 C.3     1  UNL1        0.0003
     21 C         144.7944  139.9687  163.0596 C.3     1  UNL1        0.0517
     22 C         144.3298  140.7974  161.8988 C.3     1  UNL1        0.0480
     23 C         144.7992  142.2146  161.7535 C.2     1  UNL1        0.0507
     24 O         144.7617  143.1417  162.9322 O.co2   1  UNL1       -0.5492
     25 O         145.3062  142.7048  160.4296 O.co2   1  UNL1       -0.5492
     26 C         139.7331  145.9742  161.9116 C.3     1  UNL1        0.0769
     27 C         140.2219  145.8170  160.5022 C.3     1  UNL1        0.0437
     28 C         140.4982  144.4490  159.9525 C.ar    1  UNL1       -0.0206
     29 C         141.9121  144.0080  159.7142 C.ar    1  UNL1       -0.0011
     30 C         142.1885  142.6401  159.1644 C.ar    1  UNL1        0.0366
     31 C         141.0510  141.7131  158.8529 C.ar    1  UNL1        0.1385
     32 C         139.6373  142.1540  159.0912 C.ar    1  UNL1        0.0366
     33 C         139.3609  143.5220  159.6410 C.ar    1  UNL1       -0.0011
     34 O         141.3274  140.3451  158.3031 O.3     1  UNL1       -0.4754
     35 C         142.4055  139.4967  158.9098 C.3     1  UNL1        0.2068
     36 C         142.0911  138.6026  160.0725 C.3     1  UNL1        0.0646
     37 C         140.6644  138.2903  160.4142 C.3     1  UNL1        0.0759
     38 N         140.2148  138.3077  161.8451 N.3     1  UNL1       -0.2726
     39 C         139.0796  139.2365  162.1593 C.3     1  UNL1        0.0721
     40 C         138.4091  139.4810  163.4787 C.3     1  UNL1        0.0173
     41 C         138.7081  138.8571  164.8096 C.3     1  UNL1        0.0015
     42 C         139.7515  137.8346  165.1499 C.3     1  UNL1        0.0015
     43 C         140.7535  137.1835  164.2433 C.3     1  UNL1        0.0173
     44 C         140.9597  137.3940  162.7725 C.3     1  UNL1        0.0721
@<TRIPOS>UNITY_ATOM_ATTR
24 1
charge -1
@<TRIPOS>BOND
     1    19    20    1
     2    20    18    1
     3    18    17    1
     4    17     7    1
     5     7     8   ar
     6     8     9   ar
     7     9     1    1
     8     1     2    1
     9     2     3    1
    10     3     4    1
    11     4    26    1
    12    26    27    1
    13    27    28    1
    14    28    29   ar
    15    29    30   ar
    16    30    31   ar
    17    31    34    1
    18    34    35    1
    19    35    36    1
    20    36    37    1
    21    37    38    1
    22    38    39    1
    23    39    40    1
    24    40    41    1
    25    41    42    1
    26    42    43    1
    27    43    44    1
    28    31    32   ar
    29    32    33   ar
    30     4     5    1
    31     5     6    1
    32     9    10   ar
    33    10    11   ar
    34    11    12   ar
    35    12    21    1
    36    21    22    1
    37    22    23    1
    38    23    24   ar
    39    23    25   ar
    40    12    13   ar
    41    13    14   ar
    42    14    15   ar
    43    15    16   ar
    44    16     7   ar
    45     6     1    1
    46    15    10   ar
    47    33    28   ar
    48    44    38    1
@<TRIPOS>MOLECULE
*****
 44 48 0 0 0
SMALL
GASTEIGER

@<TRIPOS>ATOM
      1 N         142.9990  139.3225  160.2438 N.pl3   1  UNL1       -0.3035
      2 C         142.9776  138.5362  161.5210 C.3     1  UNL1        0.1082
      3 C         143.7535  139.0174  162.7111 C.3     1  UNL1        0.0938
      4 N         144.5509  140.2849  162.6240 N.3     1  UNL1       -0.2695
      5 C         144.5723  141.0712  161.3468 C.3     1  UNL1        0.0938
      6 C         143.7964  140.5901  160.1567 C.3     1  UNL1        0.1082
      7 C         141.8660  137.1083  157.1513 C.ar    1  UNL1       -0.0209
      8 C         142.6420  137.5895  158.3414 C.ar    1  UNL1        0.0118
      9 C         142.2230  138.8413  159.0537 C.ar    1  UNL1        0.0655
     10 C         141.0281  139.6120  158.5759 C.ar    1  UNL1        0.0941
     11 N         140.6091  140.8638  159.2883 N.ar    1  UNL1       -0.2484
     12 C         139.4142  141.6344  158.8105 C.ar    1  UNL1        0.0594
     13 C         138.6382  141.1532  157.6204 C.ar    1  UNL1        0.0147
     14 C         139.0572  139.9014  156.9080 C.ar    1  UNL1        0.0027
     15 C         140.2521  139.1308  157.3858 C.ar    1  UNL1        0.0186
     16 C         140.6711  137.8789  156.6735 C.ar    1  UNL1       -0.0027
     17 C         142.2851  135.8565  156.4389 C.3     1  UNL1        0.0264
     18 C         143.5535  135.1589  156.8317 C.3     1  UNL1        0.0047
     19 C         144.6347  133.0077  157.8082 C.3     1  UNL1        0.0000
     20 C         143.5082  133.9978  157.7802 C.3     1  UNL1        0.0003
     21 C         138.9952  142.8862  159.5228 C.3     1  UNL1        0.0517
     22 C         139.8955  143.4995  160.5540 C.3     1  UNL1        0.0480
     23 C         140.2973  144.9399  160.4376 C.2     1  UNL1        0.0507
     24 O         141.6033  145.3048  159.7963 O.co2   1  UNL1       -0.5492
     25 O         139.3931  146.0155  160.9624 O.co2   1  UNL1       -0.5492
     26 C         145.3268  140.7660  163.8141 C.3     1  UNL1        0.0769
     27 C         145.2114  142.1945  164.2571 C.3     1  UNL1        0.0437
     28 C         143.8670  142.8576  164.3081 C.ar    1  UNL1       -0.0206
     29 C         143.6275  144.1270  163.5455 C.ar    1  UNL1       -0.0011
     30 C         142.2830  144.7902  163.5964 C.ar    1  UNL1        0.0366
     31 C         141.1781  144.1840  164.4099 C.ar    1  UNL1        0.1385
     32 C         141.4176  142.9148  165.1724 C.ar    1  UNL1        0.0366
     33 C         142.7621  142.2516  165.1215 C.ar    1  UNL1       -0.0011
     34 O         139.8336  144.8472  164.4608 O.3     1  UNL1       -0.4754
     35 C         138.5890  144.0141  164.5448 C.3     1  UNL1        0.2068
     36 C         138.0672  143.3199  163.3218 C.3     1  UNL1        0.0646
     37 C         137.2330  142.0811  163.4609 C.3     1  UNL1        0.0759
     38 N         137.8883  140.7318  163.4615 N.3     1  UNL1       -0.2726
     39 C         138.2169  140.1684  164.8123 C.3     1  UNL1        0.0721
     40 C         138.8666  138.8584  165.1463 C.3     1  UNL1        0.0173
     41 C         139.3483  137.7881  164.2122 C.3     1  UNL1        0.0015
     42 C         139.2991  137.7636  162.7132 C.3     1  UNL1        0.0015
     43 C         138.7561  138.8034  161.7782 C.3     1  UNL1        0.0173
     44 C         138.1282  140.1243  162.1112 C.3     1  UNL1        0.0721
@<TRIPOS>UNITY_ATOM_ATTR
24 1
charge -1
@<TRIPOS>BOND
     1    19    20    1
     2    20    18    1
     3    18    17    1
     4    17     7    1
     5     7     8   ar
     6     8     9   ar
     7     9     1    1
     8     1     2    1
     9     2     3    1
    10     3     4    1
    11     4    26    1
    12    26    27    1
    13    27    28    1
    14    28    29   ar
    15    29    30   ar
    16    30    31   ar
    17    31    34    1
    18    34    35    1
    19    35    36    1
    20    36    37    1
    21    37    38    1
    22    38    39    1
    23    39    40    1
    24    40    41    1
    25    41    42    1
    26    42    43    1
    27    43    44    1
    28    31    32   ar
    29    32    33   ar
    30     4     5    1
    31     5     6    1
    32     9    10   ar
    33    10    11   ar
    34    11    12   ar
    35    12    21    1
    36    21    22    1
    37    22    23    1
    38    23    24   ar
    39    23    25   ar
    40    12    13   ar
    41    13    14   ar
    42    14    15   ar
    43    15    16   ar
    44    16     7   ar
    45     6     1    1
    46    15    10   ar
    47    33    28   ar
    48    44    38    1
@<TRIPOS>MOLECULE
*****
 44 48 0 0 0
SMALL
GASTEIGER

@<TRIPOS>ATOM
      1 N         142.6248  143.1986  159.4897 N.pl3   1  UNL1       -0.3035
      2 C         142.9679  143.2743  160.9480 C.3     1  UNL1        0.1082
      3 C         142.1582  144.1424  161.8649 C.3     1  UNL1        0.0938
      4 N         141.0054  144.9348  161.3236 N.3     1  UNL1       -0.2695
      5 C         140.6623  144.8592  159.8653 C.3     1  UNL1        0.0938
      6 C         141.4720  143.9911  158.9484 C.3     1  UNL1        0.1082
      7 C         145.5574  141.9541  157.1231 C.ar    1  UNL1       -0.0209
      8 C         144.7477  142.8222  158.0400 C.ar    1  UNL1        0.0118
      9 C         143.4345  142.3305  158.5728 C.ar    1  UNL1        0.0655
     10 C         142.9310  140.9707  158.1887 C.ar    1  UNL1        0.0941
     11 N         141.6179  140.4791  158.7214 N.ar    1  UNL1       -0.2484
     12 C         141.1144  139.1194  158.3373 C.ar    1  UNL1        0.0594
     13 C         141.9241  138.2513  157.4203 C.ar    1  UNL1        0.0147
     14 C         143.2373  138.7429  156.8876 C.ar    1  UNL1        0.0027
     15 C         143.7407  140.1026  157.2717 C.ar    1  UNL1        0.0186
     16 C         145.0540  140.5943  156.7389 C.ar    1  UNL1       -0.0027
     17 C         146.8706  142.4458  156.5903 C.3     1  UNL1        0.0264
     18 C         147.5448  141.7156  155.4668 C.3     1  UNL1        0.0047
     19 C         149.7372  142.0311  154.1090 C.3     1  UNL1        0.0000
     20 C         149.0423  141.6759  155.3899 C.3     1  UNL1        0.0003
     21 C         139.8012  138.6277  158.8700 C.3     1  UNL1        0.0517
     22 C         139.2763  139.1535  160.1731 C.3     1  UNL1        0.0480
     23 C         139.0929  138.2254  161.3371 C.2     1  UNL1        0.0507
     24 O         140.2813  137.5420  161.9459 O.co2   1  UNL1       -0.5492
     25 O         137.7211  137.9807  161.8923 O.co2   1  UNL1       -0.5492
     26 C         140.1957  145.8029  162.2405 C.3     1  UNL1        0.0769
     27 C         138.8592  145.3324  162.7328 C.3     1  UNL1        0.0437
     28 C         138.6978  143.9296  163.2390 C.ar    1  UNL1       -0.0206
     29 C         137.9403  142.9216  162.4265 C.ar    1  UNL1       -0.0011
     30 C         137.7789  141.5188  162.9328 C.ar    1  UNL1        0.0366
     31 C         138.3750  141.1241  164.2515 C.ar    1  UNL1        0.1385
     32 C         139.1325  142.1322  165.0639 C.ar    1  UNL1        0.0366
     33 C         139.2939  143.5349  164.5577 C.ar    1  UNL1       -0.0011
     34 O         138.2136  139.7214  164.7577 O.3     1  UNL1       -0.4754
     35 C         139.1795  139.1719  165.7654 C.3     1  UNL1        0.2068
     36 C         140.5503  138.7424  165.3336 C.3     1  UNL1        0.0646
     37 C         141.7503  139.1432  166.1394 C.3     1  UNL1        0.0759
     38 N         142.8086  140.0122  165.5272 N.3     1  UNL1       -0.2726
     39 C         142.6326  141.4888  165.7244 C.3     1  UNL1        0.0721
     40 C         143.5076  142.6075  165.2418 C.3     1  UNL1        0.0173
     41 C         144.7746  142.5261  164.4430 C.3     1  UNL1        0.0015
     42 C         145.4795  141.3058  163.9294 C.3     1  UNL1        0.0015
     43 C         145.0916  139.8655  164.0878 C.3     1  UNL1        0.0173
     44 C         143.9029  139.2898  164.7989 C.3     1  UNL1        0.0721
@<TRIPOS>UNITY_ATOM_ATTR
24 1
charge -1
@<TRIPOS>BOND
     1    19    20    1
     2    20    18    1
     3    18    17    1
     4    17     7    1
     5     7     8   ar
     6     8     9   ar
     7     9     1    1
     8     1     2    1
     9     2     3    1
    10     3     4    1
    11     4    26    1
    12    26    27    1
    13    27    28    1
    14    28    29   ar
    15    29    30   ar
    16    30    31   ar
    17    31    34    1
    18    34    35    1
    19    35    36    1
    20    36    37    1
    21    37    38    1
    22    38    39    1
    23    39    40    1
    24    40    41    1
    25    41    42    1
    26    42    43    1
    27    43    44    1
    28    31    32   ar
    29    32    33   ar
    30     4     5    1
    31     5     6    1
    32     9    10   ar
    33    10    11   ar
    34    11    12   ar
    35    12    21    1
    36    21    22    1
    37    22    23    1
    38    23    24   ar
    39    23    25   ar
    40    12    13   ar
    41    13    14   ar
    42    14    15   ar
    43    15    16   ar
    44    16     7   ar
    45     6     1    1
    46    15    10   ar
    47    33    28   ar
    48    44    38    1
@<TRIPOS>MOLECULE
*****
 44 48 0 0 0
SMALL
GASTEIGER

@<TRIPOS>ATOM
      1 N         141.3055  138.4947  159.9137 N.pl3   1  UNL1       -0.3035
      2 C         139.8259  138.7407  159.9000 C.3     1  UNL1        0.1082
      3 C         139.0066  138.4540  161.1234 C.3     1  UNL1        0.0938
      4 N         139.6669  137.9211  162.3603 N.3     1  UNL1       -0.2695
      5 C         141.1465  137.6750  162.3739 C.3     1  UNL1        0.0938
      6 C         141.9658  137.9618  161.1506 C.3     1  UNL1        0.1082
      7 C         143.2706  137.9630  156.5070 C.ar    1  UNL1       -0.0209
      8 C         142.4513  137.6762  157.7303 C.ar    1  UNL1        0.0118
      9 C         142.1248  138.7814  158.6903 C.ar    1  UNL1        0.0655
     10 C         142.6175  140.1736  158.4271 C.ar    1  UNL1        0.0941
     11 N         142.2910  141.2788  159.3871 N.ar    1  UNL1       -0.2484
     12 C         142.7837  142.6709  159.1238 C.ar    1  UNL1        0.0594
     13 C         143.6030  142.9577  157.9005 C.ar    1  UNL1        0.0147
     14 C         143.9296  141.8524  156.9405 C.ar    1  UNL1        0.0027
     15 C         143.4368  140.4604  157.2038 C.ar    1  UNL1        0.0186
     16 C         143.7634  139.3550  156.2437 C.ar    1  UNL1       -0.0027
     17 C         143.5971  136.8576  155.5469 C.3     1  UNL1        0.0264
     18 C         143.7181  135.4465  156.0410 C.3     1  UNL1        0.0047
     19 C         142.6326  133.1242  156.4633 C.3     1  UNL1        0.0000
     20 C         142.6050  134.4700  155.8015 C.3     1  UNL1        0.0003
     21 C         142.4572  143.7762  160.0839 C.3     1  UNL1        0.0517
     22 C         141.4660  144.8347  159.7000 C.3     1  UNL1        0.0480
     23 C         140.0324  144.7083  160.1225 C.2     1  UNL1        0.0507
     24 O         139.4632  145.6553  161.1371 O.co2   1  UNL1       -0.5492
     25 O         139.1678  143.6350  159.5304 O.co2   1  UNL1       -0.5492
     26 C         138.8476  137.6343  163.5836 C.3     1  UNL1        0.0769
     27 C         139.5065  137.5702  164.9295 C.3     1  UNL1        0.0437
     28 C         140.3053  138.7371  165.4299 C.ar    1  UNL1       -0.0206
     29 C         141.7932  138.6187  165.5792 C.ar    1  UNL1       -0.0011
     30 C         142.5920  139.7856  166.0795 C.ar    1  UNL1        0.0366
     31 C         141.9028  141.0709  166.4305 C.ar    1  UNL1        0.1385
     32 C         140.4150  141.1893  166.2811 C.ar    1  UNL1        0.0366
     33 C         139.6163  140.0224  165.7808 C.ar    1  UNL1       -0.0011
     34 O         142.7016  142.2378  166.9308 O.3     1  UNL1       -0.4754
     35 C         143.7242  142.8827  166.0428 C.3     1  UNL1        0.2068
     36 C         143.4752  142.9906  164.5675 C.3     1  UNL1        0.0646
     37 C         142.5035  144.0059  164.0433 C.3     1  UNL1        0.0759
     38 N         141.0788  143.6157  163.7825 N.3     1  UNL1       -0.2726
     39 C         140.8834  142.3950  162.9327 C.3     1  UNL1        0.0721
     40 C         139.5989  141.7550  162.4966 C.3     1  UNL1        0.0173
     41 C         138.1924  142.1774  162.8024 C.3     1  UNL1        0.0015
     42 C         137.7232  143.3443  163.6198 C.3     1  UNL1        0.0015
     43 C         138.5445  144.3769  164.3334 C.3     1  UNL1        0.0173
     44 C         140.0379  144.4976  164.4058 C.3     1  UNL1        0.0721
@<TRIPOS>UNITY_ATOM_ATTR
24 1
charge -1
@<TRIPOS>BOND
     1    19    20    1
     2    20    18    1
     3    18    17    1
     4    17     7    1
     5     7     8   ar
     6     8     9   ar
     7     9     1    1
     8     1     2    1
     9     2     3    1
    10     3     4    1
    11     4    26    1
    12    26    27    1
    13    27    28    1
    14    28    29   ar
    15    29    30   ar
    16    30    31   ar
    17    31    34    1
    18    34    35    1
    19    35    36    1
    20    36    37    1
    21    37    38    1
    22    38    39    1
    23    39    40    1
    24    40    41    1
    25    41    42    1
    26    42    43    1
    27    43    44    1
    28    31    32   ar
    29    32    33   ar
    30     4     5    1
    31     5     6    1
    32     9    10   ar
    33    10    11   ar
    34    11    12   ar
    35    12    21    1
    36    21    22    1
    37    22    23    1
    38    23    24   ar
    39    23    25   ar
    40    12    13   ar
    41    13    14   ar
    42    14    15   ar
    43    15    16   ar
    44    16     7   ar
    45     6     1    1
    46    15    10   ar
    47    33    28   ar
    48    44    38    1
@<TRIPOS>MOLECULE
*****
 44 48 0 0 0
SMALL
GASTEIGER

@<TRIPOS>ATOM
      1 N         140.9861  144.4639  159.9654 N.pl3   1  UNL1       -0.3035
      2 C         140.3423  145.1510  161.1330 C.3     1  UNL1        0.1082
      3 C         141.0288  145.1655  162.4666 C.3     1  UNL1        0.0938
      4 N         142.3591  144.4928  162.6326 N.3     1  UNL1       -0.2695
      5 C         143.0031  143.8056  161.4650 C.3     1  UNL1        0.0938
      6 C         142.3165  143.7912  160.1314 C.3     1  UNL1        0.1082
      7 C         139.8457  145.5504  156.3228 C.ar    1  UNL1       -0.0209
      8 C         140.5322  145.5649  157.6564 C.ar    1  UNL1        0.0118
      9 C         140.2996  144.4494  158.6318 C.ar    1  UNL1        0.0655
     10 C         139.3804  143.3194  158.2737 C.ar    1  UNL1        0.0941
     11 N         139.1477  142.2039  159.2492 N.ar    1  UNL1       -0.2484
     12 C         138.2285  141.0740  158.8910 C.ar    1  UNL1        0.0594
     13 C         137.5420  141.0595  157.5574 C.ar    1  UNL1        0.0147
     14 C         137.7747  142.1750  156.5820 C.ar    1  UNL1        0.0027
     15 C         138.6939  143.3049  156.9401 C.ar    1  UNL1        0.0186
     16 C         138.9266  144.4204  155.9646 C.ar    1  UNL1       -0.0027
     17 C         140.0784  146.6659  155.3473 C.3     1  UNL1        0.0264
     18 C         139.0049  147.6847  155.1029 C.3     1  UNL1        0.0047
     19 C         140.0390  149.3105  153.3602 C.3     1  UNL1        0.0000
     20 C         139.3736  149.0770  154.6841 C.3     1  UNL1        0.0003
     21 C         137.9958  139.9584  159.8665 C.3     1  UNL1        0.0517
     22 C         139.0418  138.9008  160.0597 C.3     1  UNL1        0.0480
     23 C         140.0001  138.5822  158.9507 C.2     1  UNL1        0.0507
     24 O         139.4934  137.9930  157.6676 O.co2   1  UNL1       -0.5492
     25 O         141.4652  138.8527  159.1246 O.co2   1  UNL1       -0.5492
     26 C         143.0456  144.5073  163.9662 C.3     1  UNL1        0.0769
     27 C         143.4912  143.2202  164.5944 C.3     1  UNL1        0.0437
     28 C         142.5300  142.4156  165.4184 C.ar    1  UNL1       -0.0206
     29 C         141.2059  143.0011  165.8108 C.ar    1  UNL1       -0.0011
     30 C         140.2447  142.1966  166.6348 C.ar    1  UNL1        0.0366
     31 C         140.6078  140.8066  167.0665 C.ar    1  UNL1        0.1385
     32 C         141.9319  140.2212  166.6741 C.ar    1  UNL1        0.0366
     33 C         142.8930  141.0257  165.8501 C.ar    1  UNL1       -0.0011
     34 O         139.6467  140.0021  167.8905 O.3     1  UNL1       -0.4754
     35 C         138.5952  139.1705  167.2174 C.3     1  UNL1        0.2068
     36 C         138.1660  139.4938  165.8170 C.3     1  UNL1        0.0646
     37 C         138.6313  138.6411  164.6741 C.3     1  UNL1        0.0759
     38 N         139.8823  139.0025  163.9294 N.3     1  UNL1       -0.2726
     39 C         139.9012  140.3704  163.3142 C.3     1  UNL1        0.0721
     40 C         140.9914  141.0218  162.5160 C.3     1  UNL1        0.0173
     41 C         142.3320  140.4663  162.1360 C.3     1  UNL1        0.0015
     42 C         142.9133  139.1221  162.4602 C.3     1  UNL1        0.0015
     43 C         142.2977  138.0014  163.2446 C.3     1  UNL1        0.0173
     44 C         140.9488  137.9482  163.8985 C.3     1  UNL1        0.0721
@<TRIPOS>UNITY_ATOM_ATTR
24 1
charge -1
@<TRIPOS>BOND
     1    19    20    1
     2    20    18    1
     3    18    17    1
     4    17     7    1
     5     7     8   ar
     6     8     9   ar
     7     9     1    1
     8     1     2    1
     9     2     3    1
    10     3     4    1
    11     4    26    1
    12    26    27    1
    13    27    28    1
    14    28    29   ar
    15    29    30   ar
    16    30    31   ar
    17    31    34    1
    18    34    35    1
    19    35    36    1
    20    36    37    1
    21    37    38    1
    22    38    39    1
    23    39    40    1
    24    40    41    1
    25    41    42    1
    26    42    43    1
    27    43    44    1
    28    31    32   ar
    29    32    33   ar
    30     4     5    1
    31     5     6    1
    32     9    10   ar
    33    10    11   ar
    34    11    12   ar
    35    12    21    1
    36    21    22    1
    37    22    23    1
    38    23    24   ar
    39    23    25   ar
    40    12    13   ar
    41    13    14   ar
    42    14    15   ar
    43    15    16   ar
    44    16     7   ar
    45     6     1    1
    46    15    10   ar
    47    33    28   ar
    48    44    38    1
@<TRIPOS>MOLECULE
*****
 44 48 0 0 0
SMALL
GASTEIGER

@<TRIPOS>ATOM
      1 N         141.6833  138.8083  159.5276 N.pl3   1  UNL1       -0.3035
      2 C         142.2102  138.2242  160.8047 C.3     1  UNL1        0.1082
      3 C         141.2604  137.8246  161.8947 C.3     1  UNL1        0.0938
      4 N         139.7837  138.0091  161.7077 N.3     1  UNL1       -0.2695
      5 C         139.2566  138.5933  160.4305 C.3     1  UNL1        0.0938
      6 C         140.2064  138.9929  159.3405 C.3     1  UNL1        0.1082
      7 C         144.1262  141.0048  157.3011 C.ar    1  UNL1       -0.0209
      8 C         143.1764  140.6052  158.3912 C.ar    1  UNL1        0.0118
      9 C         142.6331  139.2079  158.4375 C.ar    1  UNL1        0.0655
     10 C         143.0395  138.2101  157.3938 C.ar    1  UNL1        0.0941
     11 N         142.4962  136.8128  157.4402 N.ar    1  UNL1       -0.2484
     12 C         142.9026  135.8150  156.3966 C.ar    1  UNL1        0.0594
     13 C         143.8524  136.2146  155.3065 C.ar    1  UNL1        0.0147
     14 C         144.3958  137.6119  155.2601 C.ar    1  UNL1        0.0027
     15 C         143.9893  138.6097  156.3038 C.ar    1  UNL1        0.0186
     16 C         144.5327  140.0071  156.2575 C.ar    1  UNL1       -0.0027
     17 C         144.6696  142.4022  157.2548 C.3     1  UNL1        0.0264
     18 C         146.0460  142.6895  157.7773 C.3     1  UNL1        0.0047
     19 C         147.0286  142.8127  155.3754 C.3     1  UNL1        0.0000
     20 C         147.2254  142.6375  156.8521 C.3     1  UNL1        0.0003
     21 C         142.3593  134.4176  156.4429 C.3     1  UNL1        0.0517
     22 C         143.1898  133.2730  155.9428 C.3     1  UNL1        0.0480
     23 C         144.3637  132.7922  156.7432 C.2     1  UNL1        0.0507
     24 O         144.5649  133.2807  158.1472 O.co2   1  UNL1       -0.5492
     25 O         145.3364  131.8228  156.1398 O.co2   1  UNL1       -0.5492
     26 C         138.8339  137.6095  162.7977 C.3     1  UNL1        0.0769
     27 C         138.8217  138.3622  164.0951 C.3     1  UNL1        0.0437
     28 C         138.8093  139.8621  164.0920 C.ar    1  UNL1       -0.0206
     29 C         137.7972  140.6020  163.2684 C.ar    1  UNL1       -0.0011
     30 C         137.7847  142.1019  163.2652 C.ar    1  UNL1        0.0366
     31 C         138.7844  142.8620  164.0857 C.ar    1  UNL1        0.1385
     32 C         139.7964  142.1221  164.9092 C.ar    1  UNL1        0.0366
     33 C         139.8089  140.6222  164.9124 C.ar    1  UNL1       -0.0011
     34 O         138.7719  144.3619  164.0825 O.3     1  UNL1       -0.4754
     35 C         139.2409  145.1133  162.8719 C.3     1  UNL1        0.2068
     36 C         140.6983  145.4235  162.6997 C.3     1  UNL1        0.0646
     37 C         141.5415  144.5821  161.7881 C.3     1  UNL1        0.0759
     38 N         142.7067  143.8152  162.3396 N.3     1  UNL1       -0.2726
     39 C         142.8751  143.8693  163.8291 C.3     1  UNL1        0.0721
     40 C         143.9279  143.2172  164.6755 C.3     1  UNL1        0.0173
     41 C         145.0723  142.3499  164.2416 C.3     1  UNL1        0.0015
     42 C         145.4465  141.9206  162.8539 C.3     1  UNL1        0.0015
     43 C         144.7688  142.2525  161.5575 C.3     1  UNL1        0.0173
     44 C         143.5495  143.0957  161.3286 C.3     1  UNL1        0.0721
@<TRIPOS>UNITY_ATOM_ATTR
24 1
charge -1
@<TRIPOS>BOND
     1    19    20    1
     2    20    18    1
     3    18    17    1
     4    17     7    1
     5     7     8   ar
     6     8     9   ar
     7     9     1    1
     8     1     2    1
     9     2     3    1
    10     3     4    1
    11     4    26    1
    12    26    27    1
    13    27    28    1
    14    28    29   ar
    15    29    30   ar
    16    30    31   ar
    17    31    34    1
    18    34    35    1
    19    35    36    1
    20    36    37    1
    21    37    38    1
    22    38    39    1
    23    39    40    1
    24    40    41    1
    25    41    42    1
    26    42    43    1
    27    43    44    1
    28    31    32   ar
    29    32    33   ar
    30     4     5    1
    31     5     6    1
    32     9    10   ar
    33    10    11   ar
    34    11    12   ar
    35    12    21    1
    36    21    22    1
    37    22    23    1
    38    23    24   ar
    39    23    25   ar
    40    12    13   ar
    41    13    14   ar
    42    14    15   ar
    43    15    16   ar
    44    16     7   ar
    45     6     1    1
    46    15    10   ar
    47    33    28   ar
    48    44    38    1
@<TRIPOS>MOLECULE
*****
 44 48 0 0 0
SMALL
GASTEIGER

@<TRIPOS>ATOM
      1 N         144.2339  142.5784  158.9491 N.pl3   1  UNL1       -0.3035
      2 C         142.9572  143.3515  158.8004 C.3     1  UNL1        0.1082
      3 C         142.3276  143.9976  159.9988 C.3     1  UNL1        0.0938
      4 N         142.9747  143.8704  161.3460 N.3     1  UNL1       -0.2695
      5 C         144.2515  143.0972  161.4948 C.3     1  UNL1        0.0938
      6 C         144.8811  142.4512  160.2964 C.3     1  UNL1        0.1082
      7 C         146.7497  141.8579  155.9656 C.ar    1  UNL1       -0.0209
      8 C         146.1201  142.5039  157.1640 C.ar    1  UNL1        0.0118
      9 C         144.8635  141.9323  157.7507 C.ar    1  UNL1        0.0655
     10 C         144.2364  140.7147  157.1389 C.ar    1  UNL1        0.0941
     11 N         142.9798  140.1431  157.7256 N.ar    1  UNL1       -0.2484
     12 C         142.3528  138.9256  157.1138 C.ar    1  UNL1        0.0594
     13 C         142.9824  138.2795  155.9154 C.ar    1  UNL1        0.0147
     14 C         144.2390  138.8511  155.3287 C.ar    1  UNL1        0.0027
     15 C         144.8660  140.0687  155.9405 C.ar    1  UNL1        0.0186
     16 C         146.1227  140.6403  155.3538 C.ar    1  UNL1       -0.0027
     17 C         148.0064  142.4295  155.3789 C.3     1  UNL1        0.0264
     18 C         147.9754  143.0779  154.0267 C.3     1  UNL1        0.0047
     19 C         145.8818  144.5120  153.4698 C.3     1  UNL1        0.0000
     20 C         147.3290  144.4203  153.8533 C.3     1  UNL1        0.0003
     21 C         141.0961  138.3539  157.7005 C.3     1  UNL1        0.0517
     22 C         140.8788  138.3865  159.1843 C.3     1  UNL1        0.0480
     23 C         139.4986  138.5883  159.7359 C.2     1  UNL1        0.0507
     24 O         138.5122  139.4418  158.9952 O.co2   1  UNL1       -0.5492
     25 O         139.1047  137.9365  161.0282 O.co2   1  UNL1       -0.5492
     26 C         142.3451  144.5165  162.5444 C.3     1  UNL1        0.0769
     27 C         142.9183  144.2821  163.9106 C.3     1  UNL1        0.0437
     28 C         142.3373  143.2195  164.7956 C.ar    1  UNL1       -0.0206
     29 C         140.9630  143.3919  165.3716 C.ar    1  UNL1       -0.0011
     30 C         140.3819  142.3293  166.2565 C.ar    1  UNL1        0.0366
     31 C         141.1752  141.0942  166.5655 C.ar    1  UNL1        0.1385
     32 C         142.5494  140.9218  165.9896 C.ar    1  UNL1        0.0366
     33 C         143.1304  141.9844  165.1046 C.ar    1  UNL1       -0.0011
     34 O         140.5942  140.0315  167.4505 O.3     1  UNL1       -0.4754
     35 C         139.1160  139.7765  167.4450 C.3     1  UNL1        0.2068
     36 C         138.5233  138.8221  166.4510 C.3     1  UNL1        0.0646
     37 C         138.3967  139.2218  165.0108 C.3     1  UNL1        0.0759
     38 N         139.6216  139.3284  164.1516 N.3     1  UNL1       -0.2726
     39 C         139.7057  140.5514  163.2872 C.3     1  UNL1        0.0721
     40 C         140.7895  140.9459  162.3281 C.3     1  UNL1        0.0173
     41 C         142.0567  140.2150  161.9965 C.3     1  UNL1        0.0015
     42 C         142.5531  138.9089  162.5421 C.3     1  UNL1        0.0015
     43 C         141.9050  138.0113  163.5541 C.3     1  UNL1        0.0173
     44 C         140.6003  138.1980  164.2704 C.3     1  UNL1        0.0721
@<TRIPOS>UNITY_ATOM_ATTR
24 1
charge -1
@<TRIPOS>BOND
     1    19    20    1
     2    20    18    1
     3    18    17    1
     4    17     7    1
     5     7     8   ar
     6     8     9   ar
     7     9     1    1
     8     1     2    1
     9     2     3    1
    10     3     4    1
    11     4    26    1
    12    26    27    1
    13    27    28    1
    14    28    29   ar
    15    29    30   ar
    16    30    31   ar
    17    31    34    1
    18    34    35    1
    19    35    36    1
    20    36    37    1
    21    37    38    1
    22    38    39    1
    23    39    40    1
    24    40    41    1
    25    41    42    1
    26    42    43    1
    27    43    44    1
    28    31    32   ar
    29    32    33   ar
    30     4     5    1
    31     5     6    1
    32     9    10   ar
    33    10    11   ar
    34    11    12   ar
    35    12    21    1
    36    21    22    1
    37    22    23    1
    38    23    24   ar
    39    23    25   ar
    40    12    13   ar
    41    13    14   ar
    42    14    15   ar
    43    15    16   ar
    44    16     7   ar
    45     6     1    1
    46    15    10   ar
    47    33    28   ar
    48    44    38    1
@<TRIPOS>MOLECULE
*****
 44 48 0 0 0
SMALL
GASTEIGER

@<TRIPOS>ATOM
      1 N         139.2121  140.2355  161.4537 N.pl3   1  UNL1       -0.3035
      2 C         140.1382  139.2336  162.0770 C.3     1  UNL1        0.1082
      3 C         139.8713  138.7265  163.4632 C.3     1  UNL1        0.0938
      4 N         138.6783  139.2213  164.2261 N.3     1  UNL1       -0.2695
      5 C         137.7522  140.2232  163.6028 C.3     1  UNL1        0.0938
      6 C         138.0191  140.7303  162.2165 C.3     1  UNL1        0.1082
      7 C         139.7046  140.3057  157.5163 C.ar    1  UNL1       -0.0209
      8 C         139.4377  139.7985  158.9026 C.ar    1  UNL1        0.0118
      9 C         139.4790  140.7426  160.0674 C.ar    1  UNL1        0.0655
     10 C         139.7873  142.1939  159.8461 C.ar    1  UNL1        0.0941
     11 N         139.8286  143.1379  161.0110 N.ar    1  UNL1       -0.2484
     12 C         140.1368  144.5891  160.7897 C.ar    1  UNL1        0.0594
     13 C         140.4037  145.0962  159.4035 C.ar    1  UNL1        0.0147
     14 C         140.3624  144.1522  158.2386 C.ar    1  UNL1        0.0027
     15 C         140.0542  142.7010  158.4599 C.ar    1  UNL1        0.0186
     16 C         140.0128  141.7568  157.2950 C.ar    1  UNL1       -0.0027
     17 C         139.6633  139.3615  156.3514 C.3     1  UNL1        0.0264
     18 C         140.8779  138.5568  155.9948 C.3     1  UNL1        0.0047
     19 C         141.2675  136.0011  155.7366 C.3     1  UNL1        0.0000
     20 C         141.0905  137.2063  156.6119 C.3     1  UNL1        0.0003
     21 C         140.1782  145.5333  161.9546 C.3     1  UNL1        0.0517
     22 C         140.1484  144.9977  163.3554 C.3     1  UNL1        0.0480
     23 C         138.8364  144.8011  164.0554 C.2     1  UNL1        0.0507
     24 O         138.7183  145.0902  165.5226 O.co2   1  UNL1       -0.5492
     25 O         137.6424  144.3153  163.2883 O.co2   1  UNL1       -0.5492
     26 C         138.4114  138.7142  165.6123 C.3     1  UNL1        0.0769
     27 C         138.9351  139.4662  166.7998 C.3     1  UNL1        0.0437
     28 C         140.1638  140.3163  166.6670 C.ar    1  UNL1       -0.0206
     29 C         140.0335  141.7839  166.3855 C.ar    1  UNL1       -0.0011
     30 C         141.2622  142.6340  166.2526 C.ar    1  UNL1        0.0366
     31 C         142.6211  142.0165  166.4013 C.ar    1  UNL1        0.1385
     32 C         142.7514  140.5490  166.6828 C.ar    1  UNL1        0.0366
     33 C         141.5227  139.6989  166.8156 C.ar    1  UNL1       -0.0011
     34 O         143.8498  142.8667  166.2685 O.3     1  UNL1       -0.4754
     35 C         144.4685  143.0850  164.9195 C.3     1  UNL1        0.2068
     36 C         143.9424  142.3464  163.7247 C.3     1  UNL1        0.0646
     37 C         144.5570  141.0391  163.3207 C.3     1  UNL1        0.0759
     38 N         144.0710  140.3299  162.0916 N.3     1  UNL1       -0.2726
     39 C         143.9427  138.8399  162.2078 C.3     1  UNL1        0.0721
     40 C         143.4893  137.8565  161.1698 C.3     1  UNL1        0.0173
     41 C         143.0522  138.1202  159.7593 C.3     1  UNL1        0.0015
     42 C         142.9606  139.4324  159.0384 C.3     1  UNL1        0.0015
     43 C         143.2834  140.8050  159.5500 C.3     1  UNL1        0.0173
     44 C         143.7776  141.2044  160.9088 C.3     1  UNL1        0.0721
@<TRIPOS>UNITY_ATOM_ATTR
24 1
charge -1
@<TRIPOS>BOND
     1    19    20    1
     2    20    18    1
     3    18    17    1
     4    17     7    1
     5     7     8   ar
     6     8     9   ar
     7     9     1    1
     8     1     2    1
     9     2     3    1
    10     3     4    1
    11     4    26    1
    12    26    27    1
    13    27    28    1
    14    28    29   ar
    15    29    30   ar
    16    30    31   ar
    17    31    34    1
    18    34    35    1
    19    35    36    1
    20    36    37    1
    21    37    38    1
    22    38    39    1
    23    39    40    1
    24    40    41    1
    25    41    42    1
    26    42    43    1
    27    43    44    1
    28    31    32   ar
    29    32    33   ar
    30     4     5    1
    31     5     6    1
    32     9    10   ar
    33    10    11   ar
    34    11    12   ar
    35    12    21    1
    36    21    22    1
    37    22    23    1
    38    23    24   ar
    39    23    25   ar
    40    12    13   ar
    41    13    14   ar
    42    14    15   ar
    43    15    16   ar
    44    16     7   ar
    45     6     1    1
    46    15    10   ar
    47    33    28   ar
    48    44    38    1
