@<TRIPOS>MOLECULE
*****
 23 23 0 0 0
SMALL
GASTEIGER

@<TRIPOS>ATOM
      1 C         138.0922  139.6192  165.8463 C.3     1  UNL1        0.0693
      2 C         138.6981  139.3448  164.5018 C.2     1  UNL1        0.1534
      3 O         139.0941  140.4847  163.6109 O.2     1  UNL1       -0.2960
      4 C         138.9080  137.9305  164.0483 C.3     1  UNL1        0.0937
      5 C         139.8713  137.6343  162.9372 C.3     1  UNL1        0.1179
      6 O         139.3873  137.5847  161.5183 O.3     1  UNL1       -0.3840
      7 H         138.4345  137.7651  161.4952 H       1  UNL1        0.2104
      8 C         141.3185  137.3877  163.2451 C.3     1  UNL1        0.0297
      9 C         142.0957  138.3887  164.0475 C.3     1  UNL1        0.0025
     10 C         142.2928  138.1794  165.5197 C.3     1  UNL1        0.0001
     11 C         142.9121  139.1979  167.8282 C.3     1  UNL1        0.0000
     12 C         143.0226  139.2075  166.3323 C.3     1  UNL1        0.0000
     13 C         138.8357  139.2457  167.0943 C.3     1  UNL1        0.0342
     14 C         139.5330  140.3038  167.8970 C.ar    1  UNL1       -0.0185
     15 C         140.1188  141.5018  167.2104 C.ar    1  UNL1       -0.0009
     16 C         140.8161  142.5599  168.0131 C.ar    1  UNL1        0.0397
     17 C         140.9275  142.4199  169.5024 C.ar    1  UNL1        0.1721
     18 C         140.3417  141.2219  170.1890 C.ar    1  UNL1        0.1674
     19 O         140.4531  141.0819  171.6783 O.3     1  UNL1       -0.5029
     20 C         139.6444  140.1638  169.3863 C.ar    1  UNL1        0.0355
     21 H         140.8886  141.7429  172.1797 H       1  UNL1        0.2923
     22 O         141.6248  143.4780  170.3050 O.3     1  UNL1       -0.4684
     23 C         143.0731  143.3172  170.6605 C.3     1  UNL1        0.2526
@<TRIPOS>BOND
     1    11    12    1
     2    12    10    1
     3    10     9    1
     4     9     8    1
     5     8     5    1
     6     5     6    1
     7     5     4    1
     8     4     2    1
     9     2     3    2
    10     2     1    1
    11     1    13    1
    12    13    14    1
    13    14    15   ar
    14    15    16   ar
    15    16    17   ar
    16    17    22    1
    17    22    23    1
    18    17    18   ar
    19    18    19    1
    20    18    20   ar
    21    20    14   ar
    22     6     7    1
    23    19    21    1
@<TRIPOS>MOLECULE
*****
 23 23 0 0 0
SMALL
GASTEIGER

@<TRIPOS>ATOM
      1 C         140.8492  141.4314  166.3957 C.3     1  UNL1        0.0693
      2 C         142.2258  141.0185  166.8253 C.2     1  UNL1        0.1534
      3 O         143.4105  141.3517  165.9679 O.2     1  UNL1       -0.2960
      4 C         142.4175  140.2723  168.1124 C.3     1  UNL1        0.0937
      5 C         142.9914  140.9738  169.3076 C.3     1  UNL1        0.1179
      6 O         143.4458  140.1800  170.4966 O.3     1  UNL1       -0.3840
      7 H         143.2997  139.2356  170.3298 H       1  UNL1        0.2104
      8 C         143.1108  142.4690  169.3140 C.3     1  UNL1        0.0297
      9 C         142.1934  143.2910  170.1699 C.3     1  UNL1        0.0025
     10 C         140.7348  143.3835  169.8319 C.3     1  UNL1        0.0001
     11 C         139.3887  141.1624  169.8987 C.3     1  UNL1        0.0000
     12 C         139.7484  142.4823  170.5137 C.3     1  UNL1        0.0000
     13 C         140.4620  142.8804  166.4104 C.3     1  UNL1        0.0342
     14 C         140.2546  143.6145  165.1189 C.ar    1  UNL1       -0.0185
     15 C         141.4202  144.2531  164.4236 C.ar    1  UNL1       -0.0009
     16 C         141.2127  144.9872  163.1321 C.ar    1  UNL1        0.0397
     17 C         139.8397  145.0826  162.5358 C.ar    1  UNL1        0.1721
     18 C         138.6741  144.4440  163.2310 C.ar    1  UNL1        0.1674
     19 O         137.3010  144.5394  162.6347 O.3     1  UNL1       -0.5029
     20 C         138.8815  143.7099  164.5226 C.ar    1  UNL1        0.0355
     21 H         137.1714  144.9980  161.8280 H       1  UNL1        0.2923
     22 O         139.6323  145.8167  161.2442 O.3     1  UNL1       -0.4684
     23 C         140.3109  145.3412  159.9939 C.3     1  UNL1        0.2526
@<TRIPOS>BOND
     1    11    12    1
     2    12    10    1
     3    10     9    1
     4     9     8    1
     5     8     5    1
     6     5     6    1
     7     5     4    1
     8     4     2    1
     9     2     3    2
    10     2     1    1
    11     1    13    1
    12    13    14    1
    13    14    15   ar
    14    15    16   ar
    15    16    17   ar
    16    17    22    1
    17    22    23    1
    18    17    18   ar
    19    18    19    1
    20    18    20   ar
    21    20    14   ar
    22     6     7    1
    23    19    21    1
@<TRIPOS>MOLECULE
*****
 23 23 0 0 0
SMALL
GASTEIGER

@<TRIPOS>ATOM
      1 C         138.4279  139.9589  165.3391 C.3     1  UNL1        0.0693
      2 C         138.3992  138.5180  165.7550 C.2     1  UNL1        0.1534
      3 O         137.4388  138.0617  166.8130 O.2     1  UNL1       -0.2960
      4 C         139.3311  137.5334  165.1129 C.3     1  UNL1        0.0937
      5 C         139.5462  137.5622  163.6287 C.3     1  UNL1        0.1179
      6 O         138.3729  137.4663  162.6989 O.3     1  UNL1       -0.3840
      7 H         137.5557  137.3916  163.2161 H       1  UNL1        0.2104
      8 C         140.9343  137.6869  163.0743 C.3     1  UNL1        0.0297
      9 C         142.0601  138.1264  163.9628 C.3     1  UNL1        0.0025
     10 C         143.0399  139.1541  163.4791 C.3     1  UNL1        0.0001
     11 C         145.1537  140.4936  164.1771 C.3     1  UNL1        0.0000
     12 C         144.4308  139.1866  164.0396 C.3     1  UNL1        0.0000
     13 C         139.4330  140.8941  165.9432 C.3     1  UNL1        0.0342
     14 C         140.3340  140.4177  167.0438 C.ar    1  UNL1       -0.0185
     15 C         141.7748  140.1158  166.7558 C.ar    1  UNL1       -0.0009
     16 C         142.6758  139.6393  167.8564 C.ar    1  UNL1        0.0397
     17 C         142.1360  139.4648  169.2449 C.ar    1  UNL1        0.1721
     18 C         140.6952  139.7667  169.5329 C.ar    1  UNL1        0.1674
     19 O         140.1554  139.5922  170.9215 O.3     1  UNL1       -0.5029
     20 C         139.7942  140.2431  168.4323 C.ar    1  UNL1        0.0355
     21 H         140.7182  139.2946  171.6090 H       1  UNL1        0.2923
     22 O         143.0370  138.9884  170.3455 O.3     1  UNL1       -0.4684
     23 C         143.3874  137.5337  170.4511 C.3     1  UNL1        0.2526
@<TRIPOS>BOND
     1    11    12    1
     2    12    10    1
     3    10     9    1
     4     9     8    1
     5     8     5    1
     6     5     6    1
     7     5     4    1
     8     4     2    1
     9     2     3    2
    10     2     1    1
    11     1    13    1
    12    13    14    1
    13    14    15   ar
    14    15    16   ar
    15    16    17   ar
    16    17    22    1
    17    22    23    1
    18    17    18   ar
    19    18    19    1
    20    18    20   ar
    21    20    14   ar
    22     6     7    1
    23    19    21    1
@<TRIPOS>MOLECULE
*****
 23 23 0 0 0
SMALL
GASTEIGER

@<TRIPOS>ATOM
      1 C         139.0517  144.8902  164.8526 C.3     1  UNL1        0.0693
      2 C         139.9348  144.9171  163.6404 C.2     1  UNL1        0.1534
      3 O         139.4771  145.6159  162.3945 O.2     1  UNL1       -0.2960
      4 C         141.2755  144.2453  163.6740 C.3     1  UNL1        0.0937
      5 C         142.3542  144.6757  162.7247 C.3     1  UNL1        0.1179
      6 O         141.9920  145.2130  161.3718 O.3     1  UNL1       -0.3840
      7 H         141.0271  145.2149  161.2723 H       1  UNL1        0.2104
      8 C         143.7949  144.5690  163.1282 C.3     1  UNL1        0.0297
      9 C         144.1539  144.2273  164.5439 C.3     1  UNL1        0.0025
     10 C         144.5146  142.8172  164.9068 C.3     1  UNL1        0.0001
     11 C         145.2384  140.5726  163.8169 C.3     1  UNL1        0.0000
     12 C         145.4610  142.0388  164.0416 C.3     1  UNL1        0.0000
     13 C         137.8934  143.9393  164.9157 C.3     1  UNL1        0.0342
     14 C         138.0555  142.5269  164.4373 C.ar    1  UNL1       -0.0185
     15 C         138.8527  141.5477  165.2469 C.ar    1  UNL1       -0.0009
     16 C         139.0148  140.1353  164.7685 C.ar    1  UNL1        0.0397
     17 C         138.3798  139.7021  163.4805 C.ar    1  UNL1        0.1721
     18 C         137.5826  140.6814  162.6708 C.ar    1  UNL1        0.1674
     19 O         136.9475  140.2483  161.3827 O.3     1  UNL1       -0.5029
     20 C         137.4205  142.0938  163.1492 C.ar    1  UNL1        0.0355
     21 H         137.0488  139.3660  161.0839 H       1  UNL1        0.2923
     22 O         138.5419  138.2898  163.0021 O.3     1  UNL1       -0.4684
     23 C         139.8673  137.6002  163.1354 C.3     1  UNL1        0.2526
@<TRIPOS>BOND
     1    11    12    1
     2    12    10    1
     3    10     9    1
     4     9     8    1
     5     8     5    1
     6     5     6    1
     7     5     4    1
     8     4     2    1
     9     2     3    2
    10     2     1    1
    11     1    13    1
    12    13    14    1
    13    14    15   ar
    14    15    16   ar
    15    16    17   ar
    16    17    22    1
    17    22    23    1
    18    17    18   ar
    19    18    19    1
    20    18    20   ar
    21    20    14   ar
    22     6     7    1
    23    19    21    1
@<TRIPOS>MOLECULE
*****
 23 23 0 0 0
SMALL
GASTEIGER

@<TRIPOS>ATOM
      1 C         139.5668  139.9140  168.1006 C.3     1  UNL1        0.0693
      2 C         139.4013  140.4509  169.4914 C.2     1  UNL1        0.1534
      3 O         138.3773  139.8523  170.4096 O.2     1  UNL1       -0.2960
      4 C         140.2599  141.5865  169.9641 C.3     1  UNL1        0.0937
      5 C         141.6551  141.3213  170.4469 C.3     1  UNL1        0.1179
      6 O         141.9363  141.2366  171.9179 O.3     1  UNL1       -0.3840
      7 H         141.1137  141.3753  172.4128 H       1  UNL1        0.2104
      8 C         142.7691  141.1408  169.4587 C.3     1  UNL1        0.0297
      9 C         143.1710  142.2771  168.5658 C.3     1  UNL1        0.0025
     10 C         142.9827  142.1674  167.0816 C.3     1  UNL1        0.0001
     11 C         141.3289  141.8826  165.0982 C.3     1  UNL1        0.0000
     12 C         141.6263  142.3860  166.4796 C.3     1  UNL1        0.0000
     13 C         138.3959  139.3054  167.3874 C.3     1  UNL1        0.0342
     14 C         138.4382  139.1191  165.8996 C.ar    1  UNL1       -0.0185
     15 C         138.8708  137.8048  165.3203 C.ar    1  UNL1       -0.0009
     16 C         138.9131  137.6185  163.8326 C.ar    1  UNL1        0.0397
     17 C         138.5228  138.7464  162.9241 C.ar    1  UNL1        0.1721
     18 C         138.0902  140.0607  163.5033 C.ar    1  UNL1        0.1674
     19 O         137.6999  141.1887  162.5948 O.3     1  UNL1       -0.5029
     20 C         138.0479  140.2470  164.9911 C.ar    1  UNL1        0.0355
     21 H         137.7264  141.0723  161.6654 H       1  UNL1        0.2923
     22 O         138.5651  138.5601  161.4363 O.3     1  UNL1       -0.4684
     23 C         139.8847  138.4731  160.7285 C.3     1  UNL1        0.2526
@<TRIPOS>BOND
     1    11    12    1
     2    12    10    1
     3    10     9    1
     4     9     8    1
     5     8     5    1
     6     5     6    1
     7     5     4    1
     8     4     2    1
     9     2     3    2
    10     2     1    1
    11     1    13    1
    12    13    14    1
    13    14    15   ar
    14    15    16   ar
    15    16    17   ar
    16    17    22    1
    17    22    23    1
    18    17    18   ar
    19    18    19    1
    20    18    20   ar
    21    20    14   ar
    22     6     7    1
    23    19    21    1
@<TRIPOS>MOLECULE
*****
 23 23 0 0 0
SMALL
GASTEIGER

@<TRIPOS>ATOM
      1 C         139.1581  137.9632  164.4888 C.3     1  UNL1        0.0693
      2 C         138.5989  138.5892  165.7320 C.2     1  UNL1        0.1534
      3 O         137.7147  137.7892  166.6420 O.2     1  UNL1       -0.2960
      4 C         138.9239  140.0152  166.0651 C.3     1  UNL1        0.0937
      5 C         139.4538  140.3660  167.4238 C.3     1  UNL1        0.1179
      6 O         139.0428  139.5598  168.6202 O.3     1  UNL1       -0.3840
      7 H         138.4365  138.8553  168.3426 H       1  UNL1        0.2104
      8 C         140.3946  141.5229  167.5862 C.3     1  UNL1        0.0297
      9 C         140.6225  142.4701  166.4457 C.3     1  UNL1        0.0025
     10 C         141.9342  142.4660  165.7180 C.3     1  UNL1        0.0001
     11 C         141.0446  141.5158  163.4695 C.3     1  UNL1        0.0000
     12 C         141.9599  142.4384  164.2185 C.3     1  UNL1        0.0000
     13 C         140.4605  137.2210  164.5434 C.3     1  UNL1        0.0342
     14 C         141.7558  137.9709  164.4449 C.ar    1  UNL1       -0.0185
     15 C         142.3691  138.5733  165.6741 C.ar    1  UNL1       -0.0009
     16 C         143.6644  139.3232  165.5756 C.ar    1  UNL1        0.0397
     17 C         144.3465  139.4707  164.2478 C.ar    1  UNL1        0.1721
     18 C         143.7332  138.8684  163.0186 C.ar    1  UNL1        0.1674
     19 O         144.4153  139.0159  161.6908 O.3     1  UNL1       -0.5029
     20 C         142.4379  138.1184  163.1171 C.ar    1  UNL1        0.0355
     21 H         145.2245  139.4843  161.6292 H       1  UNL1        0.2923
     22 O         145.6419  140.2206  164.1493 O.3     1  UNL1       -0.4684
     23 C         145.6432  141.6655  163.7464 C.3     1  UNL1        0.2526
@<TRIPOS>BOND
     1    11    12    1
     2    12    10    1
     3    10     9    1
     4     9     8    1
     5     8     5    1
     6     5     6    1
     7     5     4    1
     8     4     2    1
     9     2     3    2
    10     2     1    1
    11     1    13    1
    12    13    14    1
    13    14    15   ar
    14    15    16   ar
    15    16    17   ar
    16    17    22    1
    17    22    23    1
    18    17    18   ar
    19    18    19    1
    20    18    20   ar
    21    20    14   ar
    22     6     7    1
    23    19    21    1
@<TRIPOS>MOLECULE
*****
 23 23 0 0 0
SMALL
GASTEIGER

@<TRIPOS>ATOM
      1 C         139.4309  138.9447  164.7188 C.3     1  UNL1        0.0693
      2 C         138.8679  139.3834  163.3995 C.2     1  UNL1        0.1534
      3 O         138.0972  138.4140  162.5532 O.2     1  UNL1       -0.2960
      4 C         139.0756  140.7917  162.9264 C.3     1  UNL1        0.0937
      5 C         137.9283  141.7579  162.9207 C.3     1  UNL1        0.1179
      6 O         136.5408  141.2764  163.2260 O.3     1  UNL1       -0.3840
      7 H         136.5611  140.3229  163.4032 H       1  UNL1        0.2104
      8 C         138.1684  143.2055  162.6098 C.3     1  UNL1        0.0297
      9 C         137.9598  144.2451  163.6709 C.3     1  UNL1        0.0025
     10 C         139.0624  144.5620  164.6374 C.3     1  UNL1        0.0001
     11 C         141.1773  145.2965  163.3192 C.3     1  UNL1        0.0000
     12 C         140.4922  144.3352  164.2446 C.3     1  UNL1        0.0000
     13 C         138.6932  139.2514  165.9883 C.3     1  UNL1        0.0342
     14 C         139.2846  140.1995  166.9890 C.ar    1  UNL1       -0.0185
     15 C         139.9488  141.4617  166.5249 C.ar    1  UNL1       -0.0009
     16 C         140.5402  142.4098  167.5256 C.ar    1  UNL1        0.0397
     17 C         140.4672  142.0956  168.9905 C.ar    1  UNL1        0.1721
     18 C         139.8030  140.8334  169.4547 C.ar    1  UNL1        0.1674
     19 O         139.7300  140.5191  170.9196 O.3     1  UNL1       -0.5029
     20 C         139.2116  139.8853  168.4539 C.ar    1  UNL1        0.0355
     21 H         140.0994  141.1114  171.5448 H       1  UNL1        0.2923
     22 O         141.0586  143.0437  169.9913 O.3     1  UNL1       -0.4684
     23 C         142.5312  143.0125  170.2747 C.3     1  UNL1        0.2526
@<TRIPOS>BOND
     1    11    12    1
     2    12    10    1
     3    10     9    1
     4     9     8    1
     5     8     5    1
     6     5     6    1
     7     5     4    1
     8     4     2    1
     9     2     3    2
    10     2     1    1
    11     1    13    1
    12    13    14    1
    13    14    15   ar
    14    15    16   ar
    15    16    17   ar
    16    17    22    1
    17    22    23    1
    18    17    18   ar
    19    18    19    1
    20    18    20   ar
    21    20    14   ar
    22     6     7    1
    23    19    21    1
@<TRIPOS>MOLECULE
*****
 23 23 0 0 0
SMALL
GASTEIGER

@<TRIPOS>ATOM
      1 C         140.3239  143.1241  169.0392 C.3     1  UNL1        0.0693
      2 C         140.1135  142.1816  170.1870 C.2     1  UNL1        0.1534
      3 O         139.7443  142.7165  171.5388 O.2     1  UNL1       -0.2960
      4 C         140.2724  140.7040  169.9829 C.3     1  UNL1        0.0937
      5 C         141.6342  140.0791  170.0551 C.3     1  UNL1        0.1179
      6 O         142.5337  140.3735  171.2188 O.3     1  UNL1       -0.3840
      7 H         142.0856  140.9805  171.8284 H       1  UNL1        0.2104
      8 C         142.0963  139.1598  168.9636 C.3     1  UNL1        0.0297
      9 C         142.8344  139.7121  167.7803 C.3     1  UNL1        0.0025
     10 C         143.1712  138.8192  166.6229 C.3     1  UNL1        0.0001
     11 C         141.6181  137.5946  164.9382 C.3     1  UNL1        0.0000
     12 C         142.3217  138.8410  165.3868 C.3     1  UNL1        0.0000
     13 C         140.9030  142.6196  167.7509 C.3     1  UNL1        0.0342
     14 C         140.0000  142.3038  166.5955 C.ar    1  UNL1       -0.0185
     15 C         139.5334  140.8960  166.3713 C.ar    1  UNL1       -0.0009
     16 C         138.6304  140.5802  165.2159 C.ar    1  UNL1        0.0397
     17 C         138.1941  141.6722  164.2847 C.ar    1  UNL1        0.1721
     18 C         138.6608  143.0800  164.5089 C.ar    1  UNL1        0.1674
     19 O         138.2245  144.1720  163.5777 O.3     1  UNL1       -0.5029
     20 C         139.5638  143.3958  165.6643 C.ar    1  UNL1        0.0355
     21 H         137.6604  143.9748  162.8559 H       1  UNL1        0.2923
     22 O         137.2911  141.3564  163.1293 O.3     1  UNL1       -0.4684
     23 C         137.8697  140.8466  161.8428 C.3     1  UNL1        0.2526
@<TRIPOS>BOND
     1    11    12    1
     2    12    10    1
     3    10     9    1
     4     9     8    1
     5     8     5    1
     6     5     6    1
     7     5     4    1
     8     4     2    1
     9     2     3    2
    10     2     1    1
    11     1    13    1
    12    13    14    1
    13    14    15   ar
    14    15    16   ar
    15    16    17   ar
    16    17    22    1
    17    22    23    1
    18    17    18   ar
    19    18    19    1
    20    18    20   ar
    21    20    14   ar
    22     6     7    1
    23    19    21    1
@<TRIPOS>MOLECULE
*****
 23 23 0 0 0
SMALL
GASTEIGER

@<TRIPOS>ATOM
      1 C         137.5765  141.1604  162.9304 C.3     1  UNL1        0.0693
      2 C         137.7104  142.5850  162.4803 C.2     1  UNL1        0.1534
      3 O         137.6675  142.9168  161.0181 O.2     1  UNL1       -0.2960
      4 C         137.8873  143.6778  163.4925 C.3     1  UNL1        0.0937
      5 C         138.9673  144.7025  163.3090 C.3     1  UNL1        0.1179
      6 O         138.9291  145.6295  162.1303 O.3     1  UNL1       -0.3840
      7 H         138.1472  145.4342  161.5905 H       1  UNL1        0.2104
      8 C         140.0854  144.8001  164.3040 C.3     1  UNL1        0.0297
      9 C         141.4842  145.0731  163.8361 C.3     1  UNL1        0.0025
     10 C         142.5616  144.0532  164.0576 C.3     1  UNL1        0.0001
     11 C         143.1799  141.5325  164.1753 C.3     1  UNL1        0.0000
     12 C         142.3718  142.6452  163.5763 C.3     1  UNL1        0.0000
     13 C         138.7611  140.4403  163.5032 C.3     1  UNL1        0.0342
     14 C         138.8910  140.2728  164.9881 C.ar    1  UNL1       -0.0185
     15 C         139.8575  141.1238  165.7572 C.ar    1  UNL1       -0.0009
     16 C         139.9873  140.9563  167.2422 C.ar    1  UNL1        0.0397
     17 C         139.1506  139.9378  167.9581 C.ar    1  UNL1        0.1721
     18 C         138.1840  139.0869  167.1890 C.ar    1  UNL1        0.1674
     19 O         137.3472  138.0683  167.9049 O.3     1  UNL1       -0.5029
     20 C         138.0542  139.2544  165.7040 C.ar    1  UNL1        0.0355
     21 H         137.4283  137.9637  168.8325 H       1  UNL1        0.2923
     22 O         139.2804  139.7704  169.4430 O.3     1  UNL1       -0.4684
     23 C         140.6259  139.8856  170.0960 C.3     1  UNL1        0.2526
@<TRIPOS>BOND
     1    11    12    1
     2    12    10    1
     3    10     9    1
     4     9     8    1
     5     8     5    1
     6     5     6    1
     7     5     4    1
     8     4     2    1
     9     2     3    2
    10     2     1    1
    11     1    13    1
    12    13    14    1
    13    14    15   ar
    14    15    16   ar
    15    16    17   ar
    16    17    22    1
    17    22    23    1
    18    17    18   ar
    19    18    19    1
    20    18    20   ar
    21    20    14   ar
    22     6     7    1
    23    19    21    1
