@<TRIPOS>MOLECULE
*****
 33 37 0 0 0
SMALL
GASTEIGER

@<TRIPOS>ATOM
      1 N         139.7888  137.9822  164.1322 N.3     1  UNL1       -0.2712
      2 C         141.2068  137.4954  164.0859 C.3     1  UNL1        0.0738
      3 C         141.9673  138.1780  165.1839 C.3     1  UNL1        0.0372
      4 C         143.3137  138.2990  165.8339 C.3     1  UNL1        0.0245
      5 C         143.1978  139.2825  166.9607 C.3     1  UNL1        0.0910
      6 N         141.7797  139.7693  167.0070 N.pl3   1  UNL1       -0.3042
      7 C         141.0193  139.0867  165.9089 C.3     1  UNL1        0.0902
      8 C         139.6728  138.9657  165.2589 C.3     1  UNL1        0.0921
      9 C         141.2203  140.7640  167.9804 C.ar    1  UNL1        0.1036
     10 C         140.8694  142.1478  167.5203 C.ar    1  UNL1        0.1578
     11 F         141.0777  142.5370  166.0867 F       1  UNL1       -0.2027
     12 C         140.3100  143.1426  168.4938 C.ar    1  UNL1        0.0607
     13 C         140.1016  142.7534  169.9273 C.ar    1  UNL1        0.1447
     14 F         139.5422  143.7482  170.9008 F       1  UNL1       -0.2040
     15 C         140.4526  141.3695  170.3875 C.ar    1  UNL1        0.0607
     16 C         141.0120  140.3748  169.4140 C.ar    1  UNL1        0.1578
     17 F         141.3629  138.9910  169.8741 F       1  UNL1       -0.2027
     18 C         138.6811  137.5598  163.2132 C.3     1  UNL1        0.0731
     19 C         138.6746  138.0197  161.7855 C.3     1  UNL1        0.0294
     20 C         137.7695  139.1385  161.3619 C.3     1  UNL1        0.0666
     21 S         138.1957  140.0760  160.2714 S.3     1  UNL1       -0.0756
     22 C         141.0401  140.5558  161.7974 C.3     1  UNL1        0.1340
     23 N         140.1044  141.6263  161.3195 N.ar    1  UNL1       -0.2872
     24 C         138.7970  141.4058  160.6181 C.ar    1  UNL1        0.1933
     25 N         138.1963  142.7485  160.3242 N.ar    1  UNL1       -0.1221
     26 N         139.1325  143.7989  160.8439 N.ar    1  UNL1       -0.1266
     27 C         140.3118  143.1054  161.4591 C.ar    1  UNL1        0.1862
     28 C         141.4914  143.7736  162.1011 C.ar    1  UNL1        0.1362
     29 C         142.8646  143.5837  161.5282 C.ar    1  UNL1        0.1211
     30 N         144.0441  144.2519  162.1702 N.ar    1  UNL1       -0.2390
     31 C         143.8504  145.1100  163.3852 C.ar    1  UNL1        0.1195
     32 C         142.4772  145.2999  163.9582 C.ar    1  UNL1        0.1196
     33 N         141.2977  144.6316  163.3161 N.ar    1  UNL1       -0.2375
@<TRIPOS>BOND
     1    22    23    1
     2    23    24   ar
     3    24    21    1
     4    21    20    1
     5    20    19    1
     6    19    18    1
     7    18     1    1
     8     1     2    1
     9     2     3    1
    10     3     4    1
    11     4     5    1
    12     5     6    1
    13     6     9    1
    14     9    10   ar
    15    10    11    1
    16    10    12   ar
    17    12    13   ar
    18    13    14    1
    19    13    15   ar
    20    15    16   ar
    21    16    17    1
    22     6     7    1
    23     7     8    1
    24    24    25   ar
    25    25    26   ar
    26    26    27   ar
    27    27    28    1
    28    28    29   ar
    29    29    30   ar
    30    30    31   ar
    31    31    32   ar
    32    32    33   ar
    33    27    23   ar
    34    33    28   ar
    35     8     1    1
    36     7     3    1
    37    16     9   ar
@<TRIPOS>MOLECULE
*****
 33 37 0 0 0
SMALL
GASTEIGER

@<TRIPOS>ATOM
      1 N         141.8785  143.5530  162.2549 N.3     1  UNL1       -0.2712
      2 C         141.0244  143.7473  161.0373 C.3     1  UNL1        0.0738
      3 C         139.9144  142.7395  161.0841 C.3     1  UNL1        0.0372
      4 C         138.7005  142.2366  160.3604 C.3     1  UNL1        0.0245
      5 C         138.1184  141.1087  161.1597 C.3     1  UNL1        0.0910
      6 N         138.9726  140.9144  162.3774 N.pl3   1  UNL1       -0.3042
      7 C         140.0826  141.9222  162.3306 C.3     1  UNL1        0.0902
      8 C         141.2965  142.4250  163.0543 C.3     1  UNL1        0.0921
      9 C         138.7550  139.8917  163.4530 C.ar    1  UNL1        0.1036
     10 C         139.0864  138.4515  163.1966 C.ar    1  UNL1        0.1578
     11 F         139.6354  138.0338  161.8646 F       1  UNL1       -0.2027
     12 C         138.8688  137.4288  164.2722 C.ar    1  UNL1        0.0607
     13 C         138.3198  137.8465  165.6042 C.ar    1  UNL1        0.1447
     14 F         138.1022  136.8238  166.6798 F       1  UNL1       -0.2040
     15 C         137.9884  139.2868  165.8606 C.ar    1  UNL1        0.0607
     16 C         138.2060  140.3094  164.7850 C.ar    1  UNL1        0.1578
     17 F         137.8746  141.7497  165.0414 F       1  UNL1       -0.2027
     18 C         143.1002  144.3472  162.6108 C.3     1  UNL1        0.0731
     19 C         144.4593  143.8498  162.2164 C.3     1  UNL1        0.0294
     20 C         144.7311  142.3757  162.1592 C.3     1  UNL1        0.0666
     21 S         145.4346  141.6981  163.2975 S.3     1  UNL1       -0.0756
     22 C         143.7298  142.6421  165.9152 C.3     1  UNL1        0.1340
     23 N         143.8863  141.2327  165.4262 N.ar    1  UNL1       -0.2872
     24 C         144.6699  140.7988  164.2230 C.ar    1  UNL1        0.1933
     25 N         144.5545  139.3077  164.1077 N.ar    1  UNL1       -0.1221
     26 N         143.6996  138.8200  165.2397 N.ar    1  UNL1       -0.1266
     27 C         143.2866  140.0098  166.0546 C.ar    1  UNL1        0.1862
     28 C         142.4252  139.9815  167.2823 C.ar    1  UNL1        0.1362
     29 C         141.0495  140.5784  167.2472 C.ar    1  UNL1        0.1211
     30 N         140.1881  140.5501  168.4748 N.ar    1  UNL1       -0.2390
     31 C         140.7025  139.9248  169.7376 C.ar    1  UNL1        0.1195
     32 C         142.0781  139.3278  169.7727 C.ar    1  UNL1        0.1196
     33 N         142.9395  139.3562  168.5450 N.ar    1  UNL1       -0.2375
@<TRIPOS>BOND
     1    22    23    1
     2    23    24   ar
     3    24    21    1
     4    21    20    1
     5    20    19    1
     6    19    18    1
     7    18     1    1
     8     1     2    1
     9     2     3    1
    10     3     4    1
    11     4     5    1
    12     5     6    1
    13     6     9    1
    14     9    10   ar
    15    10    11    1
    16    10    12   ar
    17    12    13   ar
    18    13    14    1
    19    13    15   ar
    20    15    16   ar
    21    16    17    1
    22     6     7    1
    23     7     8    1
    24    24    25   ar
    25    25    26   ar
    26    26    27   ar
    27    27    28    1
    28    28    29   ar
    29    29    30   ar
    30    30    31   ar
    31    31    32   ar
    32    32    33   ar
    33    27    23   ar
    34    33    28   ar
    35     8     1    1
    36     7     3    1
    37    16     9   ar
@<TRIPOS>MOLECULE
*****
 33 37 0 0 0
SMALL
GASTEIGER

@<TRIPOS>ATOM
      1 N         142.4167  138.8241  163.4253 N.3     1  UNL1       -0.2712
      2 C         143.7842  139.1037  163.9746 C.3     1  UNL1        0.0738
      3 C         144.2146  140.4534  163.4815 C.3     1  UNL1        0.0372
      4 C         145.3258  141.4604  163.5163 C.3     1  UNL1        0.0245
      5 C         144.9111  142.6373  162.6838 C.3     1  UNL1        0.0910
      6 N         143.5435  142.3576  162.1346 N.pl3   1  UNL1       -0.3042
      7 C         143.1131  141.0079  162.6276 C.3     1  UNL1        0.0902
      8 C         142.0019  140.0009  162.5928 C.3     1  UNL1        0.0921
      9 C         142.7464  143.2678  161.2480 C.ar    1  UNL1        0.1036
     10 C         141.7749  144.2393  161.8499 C.ar    1  UNL1        0.1578
     11 F         141.6005  144.3006  163.3385 F       1  UNL1       -0.2027
     12 C         140.9777  145.1495  160.9633 C.ar    1  UNL1        0.0607
     13 C         141.1521  145.0883  159.4748 C.ar    1  UNL1        0.1447
     14 F         140.3550  145.9985  158.5882 F       1  UNL1       -0.2040
     15 C         142.1237  144.1168  158.8727 C.ar    1  UNL1        0.0607
     16 C         142.9208  143.2066  159.7593 C.ar    1  UNL1        0.1578
     17 F         143.8923  142.2351  159.1574 F       1  UNL1       -0.2027
     18 C         141.6062  137.5851  163.6662 C.3     1  UNL1        0.0731
     19 C         140.5091  137.5937  164.6892 C.3     1  UNL1        0.0294
     20 C         139.1208  138.0042  164.2968 C.3     1  UNL1        0.0666
     21 S         138.4533  139.1530  164.9929 S.3     1  UNL1       -0.0756
     22 C         140.8248  141.2699  165.7307 C.3     1  UNL1        0.1340
     23 N         139.9759  140.5193  166.7134 N.ar    1  UNL1       -0.2872
     24 C         138.8858  139.5462  166.3744 C.ar    1  UNL1        0.1933
     25 N         138.3042  139.0355  167.6592 N.ar    1  UNL1       -0.1221
     26 N         139.0347  139.6928  168.7924 N.ar    1  UNL1       -0.1266
     27 C         140.0679  140.6099  168.2079 C.ar    1  UNL1        0.1862
     28 C         141.0251  141.4671  168.9820 C.ar    1  UNL1        0.1362
     29 C         140.5611  142.7666  169.5700 C.ar    1  UNL1        0.1211
     30 N         141.5183  143.6238  170.3441 N.ar    1  UNL1       -0.2390
     31 C         142.9394  143.1812  170.5301 C.ar    1  UNL1        0.1195
     32 C         143.4034  141.8817  169.9421 C.ar    1  UNL1        0.1196
     33 N         142.4462  141.0245  169.1680 N.ar    1  UNL1       -0.2375
@<TRIPOS>BOND
     1    22    23    1
     2    23    24   ar
     3    24    21    1
     4    21    20    1
     5    20    19    1
     6    19    18    1
     7    18     1    1
     8     1     2    1
     9     2     3    1
    10     3     4    1
    11     4     5    1
    12     5     6    1
    13     6     9    1
    14     9    10   ar
    15    10    11    1
    16    10    12   ar
    17    12    13   ar
    18    13    14    1
    19    13    15   ar
    20    15    16   ar
    21    16    17    1
    22     6     7    1
    23     7     8    1
    24    24    25   ar
    25    25    26   ar
    26    26    27   ar
    27    27    28    1
    28    28    29   ar
    29    29    30   ar
    30    30    31   ar
    31    31    32   ar
    32    32    33   ar
    33    27    23   ar
    34    33    28   ar
    35     8     1    1
    36     7     3    1
    37    16     9   ar
@<TRIPOS>MOLECULE
*****
 33 37 0 0 0
SMALL
GASTEIGER

@<TRIPOS>ATOM
      1 N         143.9405  141.8653  163.5129 N.3     1  UNL1       -0.2712
      2 C         144.4060  140.4413  163.5873 C.3     1  UNL1        0.0738
      3 C         143.9223  139.8627  164.8839 C.3     1  UNL1        0.0372
      4 C         143.9111  138.6250  165.7312 C.3     1  UNL1        0.0245
      5 C         143.1397  138.9263  166.9819 C.3     1  UNL1        0.0910
      6 N         142.6741  140.3504  166.9075 N.pl3   1  UNL1       -0.3042
      7 C         143.1578  140.9291  165.6109 C.3     1  UNL1        0.0902
      8 C         143.1691  142.1668  164.7636 C.3     1  UNL1        0.0921
      9 C         141.8667  141.0695  167.9472 C.ar    1  UNL1        0.1036
     10 C         142.4567  142.2384  168.6789 C.ar    1  UNL1        0.1578
     11 F         143.8541  142.6883  168.3710 F       1  UNL1       -0.2027
     12 C         141.6492  142.9575  169.7186 C.ar    1  UNL1        0.0607
     13 C         140.2518  142.5077  170.0266 C.ar    1  UNL1        0.1447
     14 F         139.4444  143.2267  171.0662 F       1  UNL1       -0.2040
     15 C         139.6618  141.3387  169.2948 C.ar    1  UNL1        0.0607
     16 C         140.4692  140.6196  168.2551 C.ar    1  UNL1        0.1578
     17 F         139.8792  139.4507  167.5233 F       1  UNL1       -0.2027
     18 C         144.2007  142.8203  162.3858 C.3     1  UNL1        0.0731
     19 C         145.0413  142.3926  161.2194 C.3     1  UNL1        0.0294
     20 C         144.5211  142.5518  159.8215 C.3     1  UNL1        0.0666
     21 S         143.8750  141.3910  159.1250 S.3     1  UNL1       -0.0756
     22 C         141.1621  141.3544  160.9384 C.3     1  UNL1        0.1340
     23 N         142.1163  140.2114  160.7561 N.ar    1  UNL1       -0.2872
     24 C         143.3632  140.2282  159.9225 C.ar    1  UNL1        0.1933
     25 N         144.0086  138.8782  160.0266 N.ar    1  UNL1       -0.1221
     26 N         143.1605  138.0269  160.9244 N.ar    1  UNL1       -0.1266
     27 C         141.9909  138.8509  161.3753 C.ar    1  UNL1        0.1862
     28 C         140.8895  138.3944  162.2855 C.ar    1  UNL1        0.1362
     29 C         139.5215  138.1264  161.7317 C.ar    1  UNL1        0.1211
     30 N         138.4200  137.6700  162.6419 N.ar    1  UNL1       -0.2390
     31 C         138.6867  137.4816  164.1060 C.ar    1  UNL1        0.1195
     32 C         140.0547  137.7497  164.6598 C.ar    1  UNL1        0.1196
     33 N         141.1561  138.2061  163.7495 N.ar    1  UNL1       -0.2375
@<TRIPOS>BOND
     1    22    23    1
     2    23    24   ar
     3    24    21    1
     4    21    20    1
     5    20    19    1
     6    19    18    1
     7    18     1    1
     8     1     2    1
     9     2     3    1
    10     3     4    1
    11     4     5    1
    12     5     6    1
    13     6     9    1
    14     9    10   ar
    15    10    11    1
    16    10    12   ar
    17    12    13   ar
    18    13    14    1
    19    13    15   ar
    20    15    16   ar
    21    16    17    1
    22     6     7    1
    23     7     8    1
    24    24    25   ar
    25    25    26   ar
    26    26    27   ar
    27    27    28    1
    28    28    29   ar
    29    29    30   ar
    30    30    31   ar
    31    31    32   ar
    32    32    33   ar
    33    27    23   ar
    34    33    28   ar
    35     8     1    1
    36     7     3    1
    37    16     9   ar
@<TRIPOS>MOLECULE
*****
 33 37 0 0 0
SMALL
GASTEIGER

@<TRIPOS>ATOM
      1 N         140.0108  138.2820  163.8812 N.3     1  UNL1       -0.2712
      2 C         141.3779  137.6699  163.9605 C.3     1  UNL1        0.0738
      3 C         142.0648  138.2251  165.1729 C.3     1  UNL1        0.0372
      4 C         143.3342  138.1899  165.9713 C.3     1  UNL1        0.0245
      5 C         143.1762  139.1234  167.1347 C.3     1  UNL1        0.0910
      6 N         141.8090  139.7356  167.0554 N.pl3   1  UNL1       -0.3042
      7 C         141.1222  139.1804  165.8429 C.3     1  UNL1        0.0902
      8 C         139.8527  139.2156  165.0446 C.3     1  UNL1        0.0921
      9 C         141.2303  140.7286  168.0193 C.ar    1  UNL1        0.1036
     10 C         141.0058  140.3411  169.4508 C.ar    1  UNL1        0.1578
     11 F         141.3600  138.9605  169.9186 F       1  UNL1       -0.2027
     12 C         140.4271  141.3341  170.4147 C.ar    1  UNL1        0.0607
     13 C         140.0729  142.7146  169.9471 C.ar    1  UNL1        0.1447
     14 F         139.4943  143.7076  170.9110 F       1  UNL1       -0.2040
     15 C         140.2974  143.1021  168.5154 C.ar    1  UNL1        0.0607
     16 C         140.8761  142.1092  167.5515 C.ar    1  UNL1        0.1578
     17 F         141.1006  142.4966  166.1200 F       1  UNL1       -0.2027
     18 C         138.9824  138.0087  162.8241 C.3     1  UNL1        0.0731
     19 C         137.9399  139.0397  162.5074 C.3     1  UNL1        0.0294
     20 C         137.6807  139.4314  161.0828 C.3     1  UNL1        0.0666
     21 S         138.4689  140.5426  160.4552 S.3     1  UNL1       -0.0756
     22 C         139.4189  142.3547  162.9974 C.3     1  UNL1        0.1340
     23 N         140.3224  141.6233  162.0494 N.ar    1  UNL1       -0.2872
     24 C         139.8857  140.7903  160.8809 C.ar    1  UNL1        0.1933
     25 N         141.1146  140.2486  160.2127 N.ar    1  UNL1       -0.1221
     26 N         142.3108  140.7468  160.9683 N.ar    1  UNL1       -0.1266
     27 C         141.8212  141.5964  162.1035 C.ar    1  UNL1        0.1862
     28 C         142.6797  142.2962  163.1151 C.ar    1  UNL1        0.1362
     29 C         143.4588  141.4982  164.1181 C.ar    1  UNL1        0.1211
     30 N         144.3173  142.1980  165.1297 N.ar    1  UNL1       -0.2390
     31 C         144.3967  143.6959  165.1381 C.ar    1  UNL1        0.1195
     32 C         143.6176  144.4940  164.1350 C.ar    1  UNL1        0.1196
     33 N         142.7591  143.7940  163.1235 N.ar    1  UNL1       -0.2375
@<TRIPOS>BOND
     1    22    23    1
     2    23    24   ar
     3    24    21    1
     4    21    20    1
     5    20    19    1
     6    19    18    1
     7    18     1    1
     8     1     2    1
     9     2     3    1
    10     3     4    1
    11     4     5    1
    12     5     6    1
    13     6     9    1
    14     9    10   ar
    15    10    11    1
    16    10    12   ar
    17    12    13   ar
    18    13    14    1
    19    13    15   ar
    20    15    16   ar
    21    16    17    1
    22     6     7    1
    23     7     8    1
    24    24    25   ar
    25    25    26   ar
    26    26    27   ar
    27    27    28    1
    28    28    29   ar
    29    29    30   ar
    30    30    31   ar
    31    31    32   ar
    32    32    33   ar
    33    27    23   ar
    34    33    28   ar
    35     8     1    1
    36     7     3    1
    37    16     9   ar
@<TRIPOS>MOLECULE
*****
 33 37 0 0 0
SMALL
GASTEIGER

@<TRIPOS>ATOM
      1 N         142.3299  139.8668  160.5157 N.3     1  UNL1       -0.2712
      2 C         141.4707  139.9006  159.2867 C.3     1  UNL1        0.0738
      3 C         140.3346  140.8464  159.5412 C.3     1  UNL1        0.0372
      4 C         139.1014  141.4518  158.9389 C.3     1  UNL1        0.0245
      5 C         138.4963  142.3768  159.9531 C.3     1  UNL1        0.0910
      6 N         139.3556  142.3430  161.1822 N.pl3   1  UNL1       -0.3042
      7 C         140.4917  141.3972  160.9276 C.3     1  UNL1        0.0902
      8 C         141.7249  140.7917  161.5299 C.3     1  UNL1        0.0921
      9 C         139.1201  143.1188  162.4442 C.ar    1  UNL1        0.1036
     10 C         137.9323  142.8072  163.3055 C.ar    1  UNL1        0.1578
     11 F         136.9799  141.7197  162.9048 F       1  UNL1       -0.2027
     12 C         137.6968  143.5830  164.5675 C.ar    1  UNL1        0.0607
     13 C         138.6491  144.6704  164.9682 C.ar    1  UNL1        0.1447
     14 F         138.4136  145.4462  166.2302 F       1  UNL1       -0.2040
     15 C         139.8370  144.9820  164.1068 C.ar    1  UNL1        0.0607
     16 C         140.0725  144.2062  162.8448 C.ar    1  UNL1        0.1578
     17 F         141.2603  144.5178  161.9835 F       1  UNL1       -0.2027
     18 C         143.5755  139.0513  160.6986 C.3     1  UNL1        0.0731
     19 C         143.7276  138.1750  161.9064 C.3     1  UNL1        0.0294
     20 C         143.6245  138.7673  163.2807 C.3     1  UNL1        0.0666
     21 S         142.5276  138.3299  164.2055 S.3     1  UNL1       -0.0756
     22 C         140.4773  140.5569  165.4248 C.3     1  UNL1        0.1340
     23 N         141.5584  139.8451  166.1829 N.ar    1  UNL1       -0.2872
     24 C         142.5008  138.8215  165.6225 C.ar    1  UNL1        0.1933
     25 N         143.4117  138.3757  166.7277 N.ar    1  UNL1       -0.1221
     26 N         143.0322  139.1238  167.9712 N.ar    1  UNL1       -0.1266
     27 C         141.8868  140.0320  167.6346 C.ar    1  UNL1        0.1862
     28 C         141.1919  140.9634  168.5830 C.ar    1  UNL1        0.1362
     29 C         139.9966  140.4916  169.3567 C.ar    1  UNL1        0.1211
     30 N         139.3017  141.4231  170.3052 N.ar    1  UNL1       -0.2390
     31 C         139.8022  142.8264  170.4798 C.ar    1  UNL1        0.1195
     32 C         140.9975  143.2981  169.7061 C.ar    1  UNL1        0.1196
     33 N         141.6924  142.3666  168.7577 N.ar    1  UNL1       -0.2375
@<TRIPOS>BOND
     1    22    23    1
     2    23    24   ar
     3    24    21    1
     4    21    20    1
     5    20    19    1
     6    19    18    1
     7    18     1    1
     8     1     2    1
     9     2     3    1
    10     3     4    1
    11     4     5    1
    12     5     6    1
    13     6     9    1
    14     9    10   ar
    15    10    11    1
    16    10    12   ar
    17    12    13   ar
    18    13    14    1
    19    13    15   ar
    20    15    16   ar
    21    16    17    1
    22     6     7    1
    23     7     8    1
    24    24    25   ar
    25    25    26   ar
    26    26    27   ar
    27    27    28    1
    28    28    29   ar
    29    29    30   ar
    30    30    31   ar
    31    31    32   ar
    32    32    33   ar
    33    27    23   ar
    34    33    28   ar
    35     8     1    1
    36     7     3    1
    37    16     9   ar
@<TRIPOS>MOLECULE
*****
 33 37 0 0 0
SMALL
GASTEIGER

@<TRIPOS>ATOM
      1 N         140.2186  139.1946  160.9676 N.3     1  UNL1       -0.2712
      2 C         140.3956  139.7542  159.5872 C.3     1  UNL1        0.0738
      3 C         141.3358  140.9195  159.6765 C.3     1  UNL1        0.0372
      4 C         142.0263  141.9856  158.8786 C.3     1  UNL1        0.0245
      5 C         142.8572  142.8051  159.8209 C.3     1  UNL1        0.0910
      6 N         142.6802  142.2454  161.2014 N.pl3   1  UNL1       -0.3042
      7 C         141.7399  141.0801  161.1121 C.3     1  UNL1        0.0902
      8 C         141.0495  140.0141  161.9100 C.3     1  UNL1        0.0921
      9 C         143.3295  142.7607  162.4516 C.ar    1  UNL1        0.1036
     10 C         144.3310  141.9144  163.1801 C.ar    1  UNL1        0.1578
     11 F         144.6833  140.5529  162.6584 F       1  UNL1       -0.2027
     12 C         144.9803  142.4297  164.4303 C.ar    1  UNL1        0.0607
     13 C         144.6280  143.7912  164.9520 C.ar    1  UNL1        0.1447
     14 F         145.2773  144.3064  166.2022 F       1  UNL1       -0.2040
     15 C         143.6264  144.6375  164.2235 C.ar    1  UNL1        0.0607
     16 C         142.9771  144.1223  162.9733 C.ar    1  UNL1        0.1578
     17 F         141.9756  144.9685  162.2448 F       1  UNL1       -0.2027
     18 C         139.3613  138.0215  161.3402 C.3     1  UNL1        0.0731
     19 C         138.3303  138.1592  162.4210 C.3     1  UNL1        0.0294
     20 C         138.7582  138.3626  163.8443 C.3     1  UNL1        0.0666
     21 S         138.4546  139.6556  164.5412 S.3     1  UNL1       -0.0756
     22 C         140.7663  141.7526  165.4944 C.3     1  UNL1        0.1340
     23 N         139.9817  140.8389  166.3886 N.ar    1  UNL1       -0.2872
     24 C         138.9191  139.8751  165.9505 C.ar    1  UNL1        0.1933
     25 N         138.4027  139.1691  167.1691 N.ar    1  UNL1       -0.1221
     26 N         139.1460  139.6967  168.3603 N.ar    1  UNL1       -0.1266
     27 C         140.1219  140.7287  167.8781 C.ar    1  UNL1        0.1862
     28 C         141.0714  141.5128  168.7347 C.ar    1  UNL1        0.1362
     29 C         140.6181  142.7865  169.3845 C.ar    1  UNL1        0.1211
     30 N         141.5676  143.5706  170.2411 N.ar    1  UNL1       -0.2390
     31 C         142.9702  143.0808  170.4480 C.ar    1  UNL1        0.1195
     32 C         143.4235  141.8070  169.7982 C.ar    1  UNL1        0.1196
     33 N         142.4740  141.0230  168.9416 N.ar    1  UNL1       -0.2375
@<TRIPOS>BOND
     1    22    23    1
     2    23    24   ar
     3    24    21    1
     4    21    20    1
     5    20    19    1
     6    19    18    1
     7    18     1    1
     8     1     2    1
     9     2     3    1
    10     3     4    1
    11     4     5    1
    12     5     6    1
    13     6     9    1
    14     9    10   ar
    15    10    11    1
    16    10    12   ar
    17    12    13   ar
    18    13    14    1
    19    13    15   ar
    20    15    16   ar
    21    16    17    1
    22     6     7    1
    23     7     8    1
    24    24    25   ar
    25    25    26   ar
    26    26    27   ar
    27    27    28    1
    28    28    29   ar
    29    29    30   ar
    30    30    31   ar
    31    31    32   ar
    32    32    33   ar
    33    27    23   ar
    34    33    28   ar
    35     8     1    1
    36     7     3    1
    37    16     9   ar
@<TRIPOS>MOLECULE
*****
 33 37 0 0 0
SMALL
GASTEIGER

@<TRIPOS>ATOM
      1 N         143.8225  142.1841  163.8046 N.3     1  UNL1       -0.2712
      2 C         144.2340  140.7420  163.7716 C.3     1  UNL1        0.0738
      3 C         143.7286  140.0871  165.0229 C.3     1  UNL1        0.0372
      4 C         143.6705  138.7911  165.7759 C.3     1  UNL1        0.0245
      5 C         142.9108  139.0274  167.0475 C.3     1  UNL1        0.0910
      6 N         142.4993  140.4695  167.0804 N.pl3   1  UNL1       -0.3042
      7 C         143.0047  141.1244  165.8292 C.3     1  UNL1        0.0902
      8 C         143.0628  142.4204  165.0762 C.3     1  UNL1        0.0921
      9 C         141.7194  141.1391  168.1728 C.ar    1  UNL1        0.1036
     10 C         140.3248  140.6841  168.4860 C.ar    1  UNL1        0.1578
     11 F         139.7102  139.5593  167.7067 F       1  UNL1       -0.2027
     12 C         139.5449  141.3537  169.5784 C.ar    1  UNL1        0.0607
     13 C         140.1595  142.4784  170.3576 C.ar    1  UNL1        0.1447
     14 F         139.3796  143.1480  171.4500 F       1  UNL1       -0.2040
     15 C         141.5541  142.9335  170.0445 C.ar    1  UNL1        0.0607
     16 C         142.3341  142.2639  168.9521 C.ar    1  UNL1        0.1578
     17 F         143.7286  142.7190  168.6389 F       1  UNL1       -0.2027
     18 C         144.1187  143.2097  162.7509 C.3     1  UNL1        0.0731
     19 C         144.0840  144.6695  163.0944 C.3     1  UNL1        0.0294
     20 C         142.8507  145.2675  163.7038 C.3     1  UNL1        0.0666
     21 S         141.5464  145.2114  162.9653 S.3     1  UNL1       -0.0756
     22 C         141.0783  142.5144  161.1885 C.3     1  UNL1        0.1340
     23 N         140.3472  142.8795  162.4464 N.ar    1  UNL1       -0.2872
     24 C         140.5624  144.1191  163.2631 C.ar    1  UNL1        0.1933
     25 N         139.6208  144.0748  164.4299 N.ar    1  UNL1       -0.1221
     26 N         138.8236  142.8077  164.3343 N.ar    1  UNL1       -0.1266
     27 C         139.2726  142.0689  163.1085 C.ar    1  UNL1        0.1862
     28 C         138.7403  140.7510  162.6289 C.ar    1  UNL1        0.1362
     29 C         139.0492  139.4958  163.3897 C.ar    1  UNL1        0.1211
     30 N         138.5170  138.1779  162.9102 N.ar    1  UNL1       -0.2390
     31 C         137.6759  138.1154  161.6697 C.ar    1  UNL1        0.1195
     32 C         137.3670  139.3707  160.9089 C.ar    1  UNL1        0.1196
     33 N         137.8993  140.6885  161.3885 N.ar    1  UNL1       -0.2375
@<TRIPOS>BOND
     1    22    23    1
     2    23    24   ar
     3    24    21    1
     4    21    20    1
     5    20    19    1
     6    19    18    1
     7    18     1    1
     8     1     2    1
     9     2     3    1
    10     3     4    1
    11     4     5    1
    12     5     6    1
    13     6     9    1
    14     9    10   ar
    15    10    11    1
    16    10    12   ar
    17    12    13   ar
    18    13    14    1
    19    13    15   ar
    20    15    16   ar
    21    16    17    1
    22     6     7    1
    23     7     8    1
    24    24    25   ar
    25    25    26   ar
    26    26    27   ar
    27    27    28    1
    28    28    29   ar
    29    29    30   ar
    30    30    31   ar
    31    31    32   ar
    32    32    33   ar
    33    27    23   ar
    34    33    28   ar
    35     8     1    1
    36     7     3    1
    37    16     9   ar
@<TRIPOS>MOLECULE
*****
 33 37 0 0 0
SMALL
GASTEIGER

@<TRIPOS>ATOM
      1 N         140.7374  144.8197  162.9733 N.3     1  UNL1       -0.2712
      2 C         142.1891  144.8044  163.3507 C.3     1  UNL1        0.0738
      3 C         142.4004  143.6920  164.3346 C.3     1  UNL1        0.0372
      4 C         143.4283  142.9951  165.1759 C.3     1  UNL1        0.0245
      5 C         142.7425  141.8922  165.9266 C.3     1  UNL1        0.0910
      6 N         141.2908  141.9075  165.5491 N.pl3   1  UNL1       -0.3042
      7 C         141.0794  143.0199  164.5652 C.3     1  UNL1        0.0902
      8 C         140.0516  143.7168  163.7239 C.3     1  UNL1        0.0921
      9 C         140.2358  140.9744  166.0650 C.ar    1  UNL1        0.1036
     10 C         140.0939  140.7449  167.5405 C.ar    1  UNL1        0.1578
     11 F         141.0071  141.4486  168.5002 F       1  UNL1       -0.2027
     12 C         139.0389  139.8117  168.0563 C.ar    1  UNL1        0.0607
     13 C         138.1257  139.1080  167.0967 C.ar    1  UNL1        0.1447
     14 F         137.0707  138.1749  167.6126 F       1  UNL1       -0.2040
     15 C         138.2676  139.3375  165.6211 C.ar    1  UNL1        0.0607
     16 C         139.3226  140.2707  165.1052 C.ar    1  UNL1        0.1578
     17 F         139.4645  140.5001  163.6297 F       1  UNL1       -0.2027
     18 C         140.0859  145.7709  162.0137 C.3     1  UNL1        0.0731
     19 C         140.0341  145.4425  160.5510 C.3     1  UNL1        0.0294
     20 C         141.3032  145.3574  159.7559 C.3     1  UNL1        0.0666
     21 S         141.6895  144.0670  159.0959 S.3     1  UNL1       -0.0756
     22 C         139.9636  141.6650  160.4747 C.3     1  UNL1        0.1340
     23 N         141.4517  141.8374  160.5510 N.ar    1  UNL1       -0.2872
     24 C         142.2451  142.9415  159.9172 C.ar    1  UNL1        0.1933
     25 N         143.6914  142.7224  160.2489 N.ar    1  UNL1       -0.1221
     26 N         143.7920  141.4829  161.0877 N.ar    1  UNL1       -0.1266
     27 C         142.4078  140.9359  161.2744 C.ar    1  UNL1        0.1862
     28 C         142.0437  139.7038  162.0486 C.ar    1  UNL1        0.1362
     29 C         141.1392  138.6746  161.4383 C.ar    1  UNL1        0.1211
     30 N         140.7750  137.4425  162.2125 N.ar    1  UNL1       -0.2390
     31 C         141.3155  137.2397  163.5970 C.ar    1  UNL1        0.1195
     32 C         142.2200  138.2690  164.2073 C.ar    1  UNL1        0.1196
     33 N         142.5841  139.5011  163.4330 N.ar    1  UNL1       -0.2375
@<TRIPOS>BOND
     1    22    23    1
     2    23    24   ar
     3    24    21    1
     4    21    20    1
     5    20    19    1
     6    19    18    1
     7    18     1    1
     8     1     2    1
     9     2     3    1
    10     3     4    1
    11     4     5    1
    12     5     6    1
    13     6     9    1
    14     9    10   ar
    15    10    11    1
    16    10    12   ar
    17    12    13   ar
    18    13    14    1
    19    13    15   ar
    20    15    16   ar
    21    16    17    1
    22     6     7    1
    23     7     8    1
    24    24    25   ar
    25    25    26   ar
    26    26    27   ar
    27    27    28    1
    28    28    29   ar
    29    29    30   ar
    30    30    31   ar
    31    31    32   ar
    32    32    33   ar
    33    27    23   ar
    34    33    28   ar
    35     8     1    1
    36     7     3    1
    37    16     9   ar
