@<TRIPOS>MOLECULE
*****
 25 27 0 0 0
SMALL
GASTEIGER

@<TRIPOS>ATOM
      1 C         141.1877  144.9257  160.2325 C.ar    1  UNL1        0.1098
      2 C         142.1953  143.8948  160.6473 C.ar    1  UNL1        0.0891
      3 N         142.1666  143.3352  162.0386 N.ar    1  UNL1       -0.2900
      4 C         141.1302  143.8065  163.0154 C.ar    1  UNL1        0.1507
      5 N         141.1015  143.2469  164.4067 N.ar    1  UNL1       -0.2263
      6 C         140.0652  143.7182  165.3834 C.ar    1  UNL1        0.1005
      7 C         139.0576  144.7491  164.9686 C.ar    1  UNL1        0.0209
      8 C         139.0863  145.3087  163.5773 C.ar    1  UNL1        0.0078
      9 C         140.1226  144.8374  162.6006 C.ar    1  UNL1        0.0736
     10 C         140.1514  145.3970  161.2092 C.ar    1  UNL1        0.2043
     11 O         139.1438  146.4279  160.7944 O.2     1  UNL1       -0.2863
     12 C         143.1742  142.3043  162.4534 C.ar    1  UNL1        0.0659
     13 C         144.4084  142.7190  163.1981 C.ar    1  UNL1        0.0176
     14 C         145.4160  141.6881  163.6128 C.ar    1  UNL1        0.0020
     15 C         145.1894  140.2425  163.2828 C.ar    1  UNL1        0.0068
     16 C         143.9551  139.8278  162.5381 C.ar    1  UNL1        0.0360
     17 BR        143.7285  138.3822  162.2081 Br      1  UNL1       -0.0489
     18 C         142.9475  140.8587  162.1233 C.ar    1  UNL1        0.0243
     19 N         139.9831  145.4396  157.9887 N.am    1  UNL1       -0.3024
     20 C         141.2165  145.4853  158.8411 C.2     1  UNL1        0.2504
     21 O         142.4787  146.0906  158.3020 O.2     1  UNL1       -0.2700
     22 H         139.1547  145.0424  158.3425 H       1  UNL1        0.1497
     23 C         140.8226  145.3213  155.5329 C.3     1  UNL1        0.0213
     24 C         140.0118  145.9992  156.5973 C.3     1  UNL1        0.0720
     25 C         139.2297  147.2367  156.2703 C.3     1  UNL1        0.0213
@<TRIPOS>BOND
     1    23    24    1
     2    24    25    1
     3    24    19    1
     4    19    20   am
     5    20    21    2
     6    20     1    1
     7     1     2   ar
     8     2     3   ar
     9     3    12    1
    10    12    13   ar
    11    13    14   ar
    12    14    15   ar
    13    15    16   ar
    14    16    17    1
    15    16    18   ar
    16     3     4   ar
    17     4     5   ar
    18     5     6   ar
    19     6     7   ar
    20     7     8   ar
    21     8     9   ar
    22     9    10   ar
    23    10    11    2
    24    10     1   ar
    25    18    12   ar
    26     9     4   ar
    27    19    22    1
@<TRIPOS>MOLECULE
*****
 25 27 0 0 0
SMALL
GASTEIGER

@<TRIPOS>ATOM
      1 C         142.3377  142.0062  166.6008 C.ar    1  UNL1        0.1098
      2 C         141.3493  141.0989  165.9300 C.ar    1  UNL1        0.0891
      3 N         141.5846  140.6453  164.5198 N.ar    1  UNL1       -0.2900
      4 C         142.8082  141.0990  163.7802 C.ar    1  UNL1        0.1507
      5 N         143.0435  140.6455  162.3700 N.ar    1  UNL1       -0.2263
      6 C         144.2671  141.0992  161.6305 C.ar    1  UNL1        0.1005
      7 C         145.2554  142.0065  162.3013 C.ar    1  UNL1        0.0209
      8 C         145.0202  142.4601  163.7115 C.ar    1  UNL1        0.0078
      9 C         143.7966  142.0063  164.4510 C.ar    1  UNL1        0.0736
     10 C         143.5613  142.4599  165.8614 C.ar    1  UNL1        0.2043
     11 O         144.5496  143.3672  166.5321 O.2     1  UNL1       -0.2863
     12 C         140.5962  139.7380  163.8490 C.ar    1  UNL1        0.0659
     13 C         140.5636  138.2786  164.1939 C.ar    1  UNL1        0.0176
     14 C         139.5753  137.3712  163.5232 C.ar    1  UNL1        0.0020
     15 C         138.6196  137.9233  162.5074 C.ar    1  UNL1        0.0068
     16 C         138.6521  139.3828  162.1624 C.ar    1  UNL1        0.0360
     17 BR        137.6964  139.9349  161.1467 Br      1  UNL1       -0.0489
     18 C         139.6405  140.2901  162.8332 C.ar    1  UNL1        0.0243
     19 N         140.7045  142.7054  168.4966 N.am    1  UNL1       -0.3024
     20 C         142.1023  142.4598  168.0112 C.2     1  UNL1        0.2504
     21 O         143.2648  142.6676  168.9360 O.2     1  UNL1       -0.2700
     22 H         139.9415  142.5690  167.8896 H       1  UNL1        0.1497
     23 C         140.2380  144.6120  170.1987 C.3     1  UNL1        0.0213
     24 C         140.4691  143.1590  169.9069 C.3     1  UNL1        0.0720
     25 C         140.4649  142.1594  171.0253 C.3     1  UNL1        0.0213
@<TRIPOS>BOND
     1    23    24    1
     2    24    25    1
     3    24    19    1
     4    19    20   am
     5    20    21    2
     6    20     1    1
     7     1     2   ar
     8     2     3   ar
     9     3    12    1
    10    12    13   ar
    11    13    14   ar
    12    14    15   ar
    13    15    16   ar
    14    16    17    1
    15    16    18   ar
    16     3     4   ar
    17     4     5   ar
    18     5     6   ar
    19     6     7   ar
    20     7     8   ar
    21     8     9   ar
    22     9    10   ar
    23    10    11    2
    24    10     1   ar
    25    18    12   ar
    26     9     4   ar
    27    19    22    1
@<TRIPOS>MOLECULE
*****
 25 27 0 0 0
SMALL
GASTEIGER

@<TRIPOS>ATOM
      1 C         140.1618  141.0254  166.7018 C.ar    1  UNL1        0.1098
      2 C         140.0172  140.1276  165.5090 C.ar    1  UNL1        0.0891
      3 N         139.6988  140.7118  164.1647 N.ar    1  UNL1       -0.2900
      4 C         139.5249  142.1941  164.0132 C.ar    1  UNL1        0.1507
      5 N         139.2065  142.7783  162.6689 N.ar    1  UNL1       -0.2263
      6 C         139.0327  144.2605  162.5174 C.ar    1  UNL1        0.1005
      7 C         139.1773  145.1584  163.7103 C.ar    1  UNL1        0.0209
      8 C         139.4957  144.5741  165.0546 C.ar    1  UNL1        0.0078
      9 C         139.6695  143.0919  165.2061 C.ar    1  UNL1        0.0736
     10 C         139.9879  142.5076  166.5504 C.ar    1  UNL1        0.2043
     11 O         140.1325  143.4055  167.7433 O.2     1  UNL1       -0.2863
     12 C         139.5542  139.8140  162.9718 C.ar    1  UNL1        0.0659
     13 C         138.2413  139.1450  162.6914 C.ar    1  UNL1        0.0176
     14 C         138.0967  138.2471  161.4985 C.ar    1  UNL1        0.0020
     15 C         139.2650  138.0182  160.5861 C.ar    1  UNL1        0.0068
     16 C         140.5780  138.6872  160.8665 C.ar    1  UNL1        0.0360
     17 BR        141.7464  138.4583  159.9541 Br      1  UNL1       -0.0489
     18 C         140.7226  139.5851  162.0594 C.ar    1  UNL1        0.0243
     19 N         141.8293  140.6669  168.6616 N.am    1  UNL1       -0.3024
     20 C         140.4802  140.4411  168.0462 C.2     1  UNL1        0.2504
     21 O         139.4495  139.6310  168.7751 O.2     1  UNL1       -0.2700
     22 H         142.5058  141.1987  168.1832 H       1  UNL1        0.1497
     23 C         142.6484  138.6726  170.1113 C.3     1  UNL1        0.0213
     24 C         142.1478  140.0826  170.0059 C.3     1  UNL1        0.0720
     25 C         141.9657  140.9084  171.2448 C.3     1  UNL1        0.0213
@<TRIPOS>BOND
     1    23    24    1
     2    24    25    1
     3    24    19    1
     4    19    20   am
     5    20    21    2
     6    20     1    1
     7     1     2   ar
     8     2     3   ar
     9     3    12    1
    10    12    13   ar
    11    13    14   ar
    12    14    15   ar
    13    15    16   ar
    14    16    17    1
    15    16    18   ar
    16     3     4   ar
    17     4     5   ar
    18     5     6   ar
    19     6     7   ar
    20     7     8   ar
    21     8     9   ar
    22     9    10   ar
    23    10    11    2
    24    10     1   ar
    25    18    12   ar
    26     9     4   ar
    27    19    22    1
@<TRIPOS>MOLECULE
*****
 25 27 0 0 0
SMALL
GASTEIGER

@<TRIPOS>ATOM
      1 C         139.7388  142.0604  162.9093 C.ar    1  UNL1        0.1098
      2 C         139.6530  142.1283  164.4053 C.ar    1  UNL1        0.0891
      3 N         139.9808  140.9196  165.2309 N.ar    1  UNL1       -0.2900
      4 C         140.3944  139.6430  164.5606 C.ar    1  UNL1        0.1507
      5 N         140.7222  138.4344  165.3862 N.ar    1  UNL1       -0.2263
      6 C         141.1358  137.1579  164.7158 C.ar    1  UNL1        0.1005
      7 C         141.2216  137.0900  163.2198 C.ar    1  UNL1        0.0209
      8 C         140.8938  138.2987  162.3942 C.ar    1  UNL1        0.0078
      9 C         140.4802  139.5752  163.0646 C.ar    1  UNL1        0.0736
     10 C         140.1524  140.7839  162.2389 C.ar    1  UNL1        0.2043
     11 O         140.2381  140.7160  160.7429 O.2     1  UNL1       -0.2863
     12 C         139.8951  140.9875  166.7270 C.ar    1  UNL1        0.0659
     13 C         139.2227  139.8853  167.4904 C.ar    1  UNL1        0.0176
     14 C         139.1369  139.9531  168.9864 C.ar    1  UNL1        0.0020
     15 C         139.7235  141.1232  169.7190 C.ar    1  UNL1        0.0068
     16 C         140.3960  142.2255  168.9555 C.ar    1  UNL1        0.0360
     17 BR        140.9826  143.3956  169.6881 Br      1  UNL1       -0.0489
     18 C         140.4817  142.1577  167.4595 C.ar    1  UNL1        0.0243
     19 N         140.5035  144.2030  161.6545 N.am    1  UNL1       -0.3024
     20 C         139.4109  143.2691  162.0837 C.2     1  UNL1        0.2504
     21 O         137.9906  143.5439  161.6873 O.2     1  UNL1       -0.2700
     22 H         141.4357  144.0226  161.9146 H       1  UNL1        0.1497
     23 C         140.4515  145.4101  159.3545 C.3     1  UNL1        0.0213
     24 C         140.1757  145.4117  160.8289 C.3     1  UNL1        0.0720
     25 C         139.5721  146.6219  161.4777 C.3     1  UNL1        0.0213
@<TRIPOS>BOND
     1    23    24    1
     2    24    25    1
     3    24    19    1
     4    19    20   am
     5    20    21    2
     6    20     1    1
     7     1     2   ar
     8     2     3   ar
     9     3    12    1
    10    12    13   ar
    11    13    14   ar
    12    14    15   ar
    13    15    16   ar
    14    16    17    1
    15    16    18   ar
    16     3     4   ar
    17     4     5   ar
    18     5     6   ar
    19     6     7   ar
    20     7     8   ar
    21     8     9   ar
    22     9    10   ar
    23    10    11    2
    24    10     1   ar
    25    18    12   ar
    26     9     4   ar
    27    19    22    1
@<TRIPOS>MOLECULE
*****
 25 27 0 0 0
SMALL
GASTEIGER

@<TRIPOS>ATOM
      1 C         140.3105  140.1723  167.2658 C.ar    1  UNL1        0.1098
      2 C         141.5300  140.7035  166.5725 C.ar    1  UNL1        0.0891
      3 N         141.8039  140.3304  165.1457 N.ar    1  UNL1       -0.2900
      4 C         140.8582  139.4262  164.4121 C.ar    1  UNL1        0.1507
      5 N         141.1320  139.0532  162.9853 N.ar    1  UNL1       -0.2263
      6 C         140.1863  138.1490  162.2518 C.ar    1  UNL1        0.1005
      7 C         138.9668  137.6179  162.9450 C.ar    1  UNL1        0.0209
      8 C         138.6929  137.9909  164.3718 C.ar    1  UNL1        0.0078
      9 C         139.6386  138.8951  165.1054 C.ar    1  UNL1        0.0736
     10 C         139.3648  139.2681  166.5322 C.ar    1  UNL1        0.2043
     11 O         138.1452  138.7370  167.2255 O.2     1  UNL1       -0.2863
     12 C         143.0234  140.8616  164.4524 C.ar    1  UNL1        0.0659
     13 C         144.2792  140.0423  164.4110 C.ar    1  UNL1        0.0176
     14 C         145.4987  140.5734  163.7177 C.ar    1  UNL1        0.0020
     15 C         145.4625  141.9239  163.0659 C.ar    1  UNL1        0.0068
     16 C         144.2066  142.7433  163.1073 C.ar    1  UNL1        0.0360
     17 BR        144.1704  144.0937  162.4555 Br      1  UNL1       -0.0489
     18 C         142.9871  142.2121  163.8006 C.ar    1  UNL1        0.0243
     19 N         140.6798  141.7637  169.2860 N.am    1  UNL1       -0.3024
     20 C         140.0366  140.5454  168.6926 C.2     1  UNL1        0.2504
     21 O         139.1197  139.7001  169.5261 O.2     1  UNL1       -0.2700
     22 H         141.2816  142.3185  168.7389 H       1  UNL1        0.1497
     23 C         139.3460  143.1486  171.0333 C.3     1  UNL1        0.0213
     24 C         140.4060  142.1368  170.7127 C.3     1  UNL1        0.0720
     25 C         141.1922  141.4982  171.8190 C.3     1  UNL1        0.0213
@<TRIPOS>BOND
     1    23    24    1
     2    24    25    1
     3    24    19    1
     4    19    20   am
     5    20    21    2
     6    20     1    1
     7     1     2   ar
     8     2     3   ar
     9     3    12    1
    10    12    13   ar
    11    13    14   ar
    12    14    15   ar
    13    15    16   ar
    14    16    17    1
    15    16    18   ar
    16     3     4   ar
    17     4     5   ar
    18     5     6   ar
    19     6     7   ar
    20     7     8   ar
    21     8     9   ar
    22     9    10   ar
    23    10    11    2
    24    10     1   ar
    25    18    12   ar
    26     9     4   ar
    27    19    22    1
@<TRIPOS>MOLECULE
*****
 25 27 0 0 0
SMALL
GASTEIGER

@<TRIPOS>ATOM
      1 C         140.2786  142.0849  166.7066 C.ar    1  UNL1        0.1098
      2 C         140.4138  143.0649  165.5791 C.ar    1  UNL1        0.0891
      3 N         140.0436  142.6584  164.1836 N.ar    1  UNL1       -0.2900
      4 C         139.5382  141.2717  163.9155 C.ar    1  UNL1        0.1507
      5 N         139.1680  140.8651  162.5199 N.ar    1  UNL1       -0.2263
      6 C         138.6626  139.4785  162.2519 C.ar    1  UNL1        0.1005
      7 C         138.5275  138.4985  163.3794 C.ar    1  UNL1        0.0209
      8 C         138.8977  138.9051  164.7750 C.ar    1  UNL1        0.0078
      9 C         139.4030  140.2917  165.0430 C.ar    1  UNL1        0.0736
     10 C         139.7732  140.6983  166.4386 C.ar    1  UNL1        0.2043
     11 O         139.6381  139.7183  167.5661 O.2     1  UNL1       -0.2863
     12 C         140.1788  143.6384  163.0561 C.ar    1  UNL1        0.0659
     13 C         139.4587  144.9529  163.1145 C.ar    1  UNL1        0.0176
     14 C         139.5938  145.9329  161.9870 C.ar    1  UNL1        0.0020
     15 C         140.4491  145.5984  160.8010 C.ar    1  UNL1        0.0068
     16 C         141.1693  144.2838  160.7425 C.ar    1  UNL1        0.0360
     17 BR        142.0246  143.9494  159.5566 Br      1  UNL1       -0.0489
     18 C         141.0341  143.3038  161.8701 C.ar    1  UNL1        0.0243
     19 N         141.6273  141.6700  168.8881 N.am    1  UNL1       -0.3024
     20 C         140.6488  142.4916  168.1022 C.2     1  UNL1        0.2504
     21 O         140.0406  143.7197  168.7119 O.2     1  UNL1       -0.2700
     22 H         142.0266  140.8640  168.4880 H       1  UNL1        0.1497
     23 C         141.2869  141.4676  171.4558 C.3     1  UNL1        0.0213
     24 C         141.9976  142.0766  170.2837 C.3     1  UNL1        0.0720
     25 C         143.0785  143.0923  170.5071 C.3     1  UNL1        0.0213
@<TRIPOS>BOND
     1    23    24    1
     2    24    25    1
     3    24    19    1
     4    19    20   am
     5    20    21    2
     6    20     1    1
     7     1     2   ar
     8     2     3   ar
     9     3    12    1
    10    12    13   ar
    11    13    14   ar
    12    14    15   ar
    13    15    16   ar
    14    16    17    1
    15    16    18   ar
    16     3     4   ar
    17     4     5   ar
    18     5     6   ar
    19     6     7   ar
    20     7     8   ar
    21     8     9   ar
    22     9    10   ar
    23    10    11    2
    24    10     1   ar
    25    18    12   ar
    26     9     4   ar
    27    19    22    1
@<TRIPOS>MOLECULE
*****
 25 27 0 0 0
SMALL
GASTEIGER

@<TRIPOS>ATOM
      1 C         140.8720  142.4165  163.4009 C.ar    1  UNL1        0.1098
      2 C         140.2553  142.1863  164.7487 C.ar    1  UNL1        0.0891
      3 N         140.8862  141.2201  165.7071 N.ar    1  UNL1       -0.2900
      4 C         142.1340  140.4842  165.3176 C.ar    1  UNL1        0.1507
      5 N         142.7649  139.5181  166.2759 N.ar    1  UNL1       -0.2263
      6 C         144.0126  138.7822  165.8864 C.ar    1  UNL1        0.1005
      7 C         144.6293  139.0125  164.5386 C.ar    1  UNL1        0.0209
      8 C         143.9984  139.9786  163.5803 C.ar    1  UNL1        0.0078
      9 C         142.7507  140.7145  163.9698 C.ar    1  UNL1        0.0736
     10 C         142.1197  141.6806  163.0114 C.ar    1  UNL1        0.2043
     11 O         142.7364  141.9109  161.6636 O.2     1  UNL1       -0.2863
     12 C         140.2695  140.9899  167.0549 C.ar    1  UNL1        0.0659
     13 C         139.3449  139.8282  167.2680 C.ar    1  UNL1        0.0176
     14 C         138.7282  139.5979  168.6159 C.ar    1  UNL1        0.0020
     15 C         139.0360  140.5294  169.7505 C.ar    1  UNL1        0.0068
     16 C         139.9607  141.6912  169.5374 C.ar    1  UNL1        0.0360
     17 BR        140.2686  142.6226  170.6721 Br      1  UNL1       -0.0489
     18 C         140.5774  141.9214  168.1896 C.ar    1  UNL1        0.0243
     19 N         141.0605  144.4856  161.8410 N.am    1  UNL1       -0.3024
     20 C         140.2410  143.3827  162.4425 C.2     1  UNL1        0.2504
     21 O         138.7905  143.2459  162.0858 O.2     1  UNL1       -0.2700
     22 H         142.0125  144.5754  162.0751 H       1  UNL1        0.1497
     23 C         139.5202  146.5295  161.3940 C.3     1  UNL1        0.0213
     24 C         140.4295  145.4518  160.8826 C.3     1  UNL1        0.0720
     25 C         140.7080  145.3402  159.4130 C.3     1  UNL1        0.0213
@<TRIPOS>BOND
     1    23    24    1
     2    24    25    1
     3    24    19    1
     4    19    20   am
     5    20    21    2
     6    20     1    1
     7     1     2   ar
     8     2     3   ar
     9     3    12    1
    10    12    13   ar
    11    13    14   ar
    12    14    15   ar
    13    15    16   ar
    14    16    17    1
    15    16    18   ar
    16     3     4   ar
    17     4     5   ar
    18     5     6   ar
    19     6     7   ar
    20     7     8   ar
    21     8     9   ar
    22     9    10   ar
    23    10    11    2
    24    10     1   ar
    25    18    12   ar
    26     9     4   ar
    27    19    22    1
@<TRIPOS>MOLECULE
*****
 25 27 0 0 0
SMALL
GASTEIGER

@<TRIPOS>ATOM
      1 C         139.0349  139.8390  165.9895 C.ar    1  UNL1        0.1098
      2 C         139.4417  141.2034  165.5173 C.ar    1  UNL1        0.0891
      3 N         139.6963  141.4475  164.0594 N.ar    1  UNL1       -0.2900
      4 C         139.5442  140.3272  163.0736 C.ar    1  UNL1        0.1507
      5 N         139.7988  140.5713  161.6157 N.ar    1  UNL1       -0.2263
      6 C         139.6466  139.4510  160.6300 C.ar    1  UNL1        0.1005
      7 C         139.2398  138.0866  161.1021 C.ar    1  UNL1        0.0209
      8 C         138.9852  137.8425  162.5600 C.ar    1  UNL1        0.0078
      9 C         139.1374  138.9628  163.5458 C.ar    1  UNL1        0.0736
     10 C         138.8828  138.7187  165.0038 C.ar    1  UNL1        0.2043
     11 O         138.4760  137.3543  165.4760 O.2     1  UNL1       -0.2863
     12 C         140.1031  142.8119  163.5873 C.ar    1  UNL1        0.0659
     13 C         139.0800  143.7382  162.9999 C.ar    1  UNL1        0.0176
     14 C         139.4867  145.1026  162.5277 C.ar    1  UNL1        0.0020
     15 C         140.9167  145.5407  162.6429 C.ar    1  UNL1        0.0068
     16 C         141.9399  144.6144  163.2303 C.ar    1  UNL1        0.0360
     17 BR        143.3699  145.0524  163.3454 Br      1  UNL1       -0.0489
     18 C         141.5331  143.2500  163.7025 C.ar    1  UNL1        0.0243
     19 N         139.5485  140.3631  168.4819 N.am    1  UNL1       -0.3024
     20 C         138.7803  139.5950  167.4475 C.2     1  UNL1        0.2504
     21 O         137.7576  138.5828  167.8711 O.2     1  UNL1       -0.2700
     22 H         140.2198  141.0274  168.2038 H       1  UNL1        0.1497
     23 C         140.4464  139.9284  170.8807 C.3     1  UNL1        0.0213
     24 C         139.2939  140.1191  169.9398 C.3     1  UNL1        0.0720
     25 C         137.8869  140.0658  170.4567 C.3     1  UNL1        0.0213
@<TRIPOS>BOND
     1    23    24    1
     2    24    25    1
     3    24    19    1
     4    19    20   am
     5    20    21    2
     6    20     1    1
     7     1     2   ar
     8     2     3   ar
     9     3    12    1
    10    12    13   ar
    11    13    14   ar
    12    14    15   ar
    13    15    16   ar
    14    16    17    1
    15    16    18   ar
    16     3     4   ar
    17     4     5   ar
    18     5     6   ar
    19     6     7   ar
    20     7     8   ar
    21     8     9   ar
    22     9    10   ar
    23    10    11    2
    24    10     1   ar
    25    18    12   ar
    26     9     4   ar
    27    19    22    1
@<TRIPOS>MOLECULE
*****
 25 27 0 0 0
SMALL
GASTEIGER

@<TRIPOS>ATOM
      1 C         141.1768  142.6646  161.0737 C.ar    1  UNL1        0.1098
      2 C         140.4269  141.6183  161.8437 C.ar    1  UNL1        0.0891
      3 N         141.1483  140.7582  162.8385 N.ar    1  UNL1       -0.2900
      4 C         142.6196  140.9443  163.0634 C.ar    1  UNL1        0.1507
      5 N         143.3410  140.0842  164.0583 N.ar    1  UNL1       -0.2263
      6 C         144.8123  140.2704  164.2831 C.ar    1  UNL1        0.1005
      7 C         145.5622  141.3167  163.5132 C.ar    1  UNL1        0.0209
      8 C         144.8408  142.1768  162.5183 C.ar    1  UNL1        0.0078
      9 C         143.3696  141.9906  162.2935 C.ar    1  UNL1        0.0736
     10 C         142.6481  142.8508  161.2986 C.ar    1  UNL1        0.2043
     11 O         143.3980  143.8971  160.5286 O.2     1  UNL1       -0.2863
     12 C         140.3983  139.7119  163.6085 C.ar    1  UNL1        0.0659
     13 C         140.1972  138.3473  163.0193 C.ar    1  UNL1        0.0176
     14 C         139.4472  137.3010  163.7893 C.ar    1  UNL1        0.0020
     15 C         138.8985  137.6193  165.1485 C.ar    1  UNL1        0.0068
     16 C         139.0997  138.9840  165.7378 C.ar    1  UNL1        0.0360
     17 BR        138.5509  139.3024  167.0970 Br      1  UNL1       -0.0489
     18 C         139.8496  140.0303  164.9678 C.ar    1  UNL1        0.0243
     19 N         140.9593  143.6254  158.6696 N.am    1  UNL1       -0.3024
     20 C         140.4554  143.5248  160.0788 C.2     1  UNL1        0.2504
     21 O         139.2300  144.2842  160.4932 O.2     1  UNL1       -0.2700
     22 H         141.7636  143.1269  158.3976 H       1  UNL1        0.1497
     23 C         139.2279  143.8752  156.7487 C.3     1  UNL1        0.0213
     24 C         140.2380  144.4855  157.6747 C.3     1  UNL1        0.0720
     25 C         140.5266  145.9558  157.6058 C.3     1  UNL1        0.0213
@<TRIPOS>BOND
     1    23    24    1
     2    24    25    1
     3    24    19    1
     4    19    20   am
     5    20    21    2
     6    20     1    1
     7     1     2   ar
     8     2     3   ar
     9     3    12    1
    10    12    13   ar
    11    13    14   ar
    12    14    15   ar
    13    15    16   ar
    14    16    17    1
    15    16    18   ar
    16     3     4   ar
    17     4     5   ar
    18     5     6   ar
    19     6     7   ar
    20     7     8   ar
    21     8     9   ar
    22     9    10   ar
    23    10    11    2
    24    10     1   ar
    25    18    12   ar
    26     9     4   ar
    27    19    22    1
