@<TRIPOS>MOLECULE
*****
 32 37 0 0 0
SMALL
GASTEIGER

@<TRIPOS>ATOM
      1 CL        141.8693  137.6138  164.8324 Cl      1  UNL1       -0.0810
      2 C         142.3028  138.6542  163.8426 C.ar    1  UNL1        0.0711
      3 C         142.6884  138.2504  162.4504 C.ar    1  UNL1        0.0157
      4 C         143.1219  139.2908  161.4606 C.ar    1  UNL1        0.0379
      5 C         143.5074  138.8870  160.0684 C.ar    1  UNL1        0.1033
      6 N         143.9409  139.9273  159.0786 N.ar    1  UNL1       -0.2120
      7 C         143.9889  141.3716  159.4811 C.ar    1  UNL1        0.2208
      8 N         143.6034  141.7754  160.8733 N.ar    1  UNL1       -0.2135
      9 C         143.1699  140.7350  161.8630 C.ar    1  UNL1        0.0869
     10 C         142.7843  141.1388  163.2553 C.ar    1  UNL1        0.0346
     11 C         142.3508  140.0984  164.2450 C.ar    1  UNL1        0.0601
     12 N         141.9653  140.5022  165.6373 N.pl3   1  UNL1       -0.3040
     13 C         143.0279  140.8078  166.6510 C.3     1  UNL1        0.1081
     14 C         142.6424  141.2116  168.0432 C.3     1  UNL1        0.0939
     15 N         141.1943  141.3098  168.4218 N.3     1  UNL1       -0.2668
     16 C         140.1317  141.0042  167.4081 C.3     1  UNL1        0.0939
     17 C         140.5172  140.6004  166.0159 C.3     1  UNL1        0.1081
     18 C         140.8088  141.7136  169.8140 C.3     1  UNL1        0.1173
     19 C         141.0513  141.1565  171.1855 C.3     1  UNL1        0.1606
     20 O         140.2636  142.2845  171.7830 O.3     1  UNL1       -0.3507
     21 C         140.0211  142.8417  170.4116 C.3     1  UNL1        0.1606
     22 N         144.4224  142.4120  158.4912 N.pl3   1  UNL1       -0.2794
     23 H         144.1607  143.3524  158.6191 H       1  UNL1        0.1552
     24 C         145.2546  142.0195  157.3066 C.ar    1  UNL1        0.1001
     25 C         144.7965  141.1913  156.1429 C.ar    1  UNL1        0.1372
     26 N         145.9498  141.0462  155.1947 N.ar    1  UNL1       -0.1656
     27 N         147.1206  141.7848  155.7725 N.ar    1  UNL1       -0.2409
     28 C         146.6909  142.3863  157.0777 C.ar    1  UNL1        0.1497
     29 CL        147.5473  143.2099  157.9932 Cl      1  UNL1       -0.0603
     30 C         148.4820  141.9014  155.1537 C.3     1  UNL1        0.1063
     31 C         149.3554  142.3022  154.0019 C.3     1  UNL1        0.0264
     32 C         149.9666  141.7024  155.2336 C.3     1  UNL1        0.0264
@<TRIPOS>BOND
     1     1     2    1
     2     2     3   ar
     3     3     4   ar
     4     4     5   ar
     5     5     6   ar
     6     6     7   ar
     7     7    22    1
     8    22    24    1
     9    24    25   ar
    10    25    26   ar
    11    26    27   ar
    12    27    30    1
    13    30    31    1
    14    31    32    1
    15    27    28   ar
    16    28    29    1
    17     7     8   ar
    18     8     9   ar
    19     9    10   ar
    20    10    11   ar
    21    11    12    1
    22    12    13    1
    23    13    14    1
    24    14    15    1
    25    15    18    1
    26    18    19    1
    27    19    20    1
    28    20    21    1
    29    15    16    1
    30    16    17    1
    31    11     2   ar
    32    17    12    1
    33     9     4   ar
    34    21    18    1
    35    28    24   ar
    36    32    30    1
    37    22    23    1
@<TRIPOS>MOLECULE
*****
 32 37 0 0 0
SMALL
GASTEIGER

@<TRIPOS>ATOM
      1 CL        143.1958  138.6261  164.6765 Cl      1  UNL1       -0.0810
      2 C         143.1528  139.7517  163.6859 C.ar    1  UNL1        0.0711
      3 C         143.5622  139.5143  162.2626 C.ar    1  UNL1        0.0157
      4 C         143.5191  140.6399  161.2720 C.ar    1  UNL1        0.0379
      5 C         143.9285  140.4024  159.8486 C.ar    1  UNL1        0.1033
      6 N         143.8854  141.5280  158.8581 N.ar    1  UNL1       -0.2120
      7 C         143.4329  142.8911  159.2910 C.ar    1  UNL1        0.2208
      8 N         143.0235  143.1285  160.7143 N.ar    1  UNL1       -0.2135
      9 C         143.0666  142.0030  161.7048 C.ar    1  UNL1        0.0869
     10 C         142.6572  142.2404  163.1283 C.ar    1  UNL1        0.0346
     11 C         142.7003  141.1148  164.1188 C.ar    1  UNL1        0.0601
     12 N         142.2909  141.3522  165.5422 N.pl3   1  UNL1       -0.3040
     13 C         140.8997  141.0132  165.9889 C.3     1  UNL1        0.1081
     14 C         140.4903  141.2506  167.4123 C.3     1  UNL1        0.0939
     15 N         141.4721  141.8270  168.3889 N.3     1  UNL1       -0.2668
     16 C         142.8633  142.1660  167.9421 C.3     1  UNL1        0.0939
     17 C         143.2727  141.9286  166.5188 C.3     1  UNL1        0.1081
     18 C         141.0627  142.0644  169.8123 C.3     1  UNL1        0.1173
     19 C         139.7863  142.4524  170.4982 C.3     1  UNL1        0.1606
     20 O         140.4836  142.4002  171.8253 O.3     1  UNL1       -0.3507
     21 C         141.7600  142.0123  171.1394 C.3     1  UNL1        0.1606
     22 N         143.3898  144.0167  158.3004 N.pl3   1  UNL1       -0.2794
     23 H         144.1847  144.2263  157.7586 H       1  UNL1        0.1552
     24 C         142.1358  144.8229  158.1353 C.ar    1  UNL1        0.1001
     25 C         141.1671  145.1793  159.2236 C.ar    1  UNL1        0.1372
     26 N         140.0628  145.9909  158.6138 N.ar    1  UNL1       -0.1656
     27 N         140.3490  146.1361  157.1485 N.ar    1  UNL1       -0.2409
     28 C         141.6302  145.4142  156.8528 C.ar    1  UNL1        0.1497
     29 CL        142.2899  145.3032  155.5103 Cl      1  UNL1       -0.0603
     30 C         139.5027  146.8737  156.1537 C.3     1  UNL1        0.1063
     31 C         138.9084  148.1561  155.6515 C.3     1  UNL1        0.0264
     32 C         138.6311  146.8688  154.9329 C.3     1  UNL1        0.0264
@<TRIPOS>BOND
     1     1     2    1
     2     2     3   ar
     3     3     4   ar
     4     4     5   ar
     5     5     6   ar
     6     6     7   ar
     7     7    22    1
     8    22    24    1
     9    24    25   ar
    10    25    26   ar
    11    26    27   ar
    12    27    30    1
    13    30    31    1
    14    31    32    1
    15    27    28   ar
    16    28    29    1
    17     7     8   ar
    18     8     9   ar
    19     9    10   ar
    20    10    11   ar
    21    11    12    1
    22    12    13    1
    23    13    14    1
    24    14    15    1
    25    15    18    1
    26    18    19    1
    27    19    20    1
    28    20    21    1
    29    15    16    1
    30    16    17    1
    31    11     2   ar
    32    17    12    1
    33     9     4   ar
    34    21    18    1
    35    28    24   ar
    36    32    30    1
    37    22    23    1
@<TRIPOS>MOLECULE
*****
 32 37 0 0 0
SMALL
GASTEIGER

@<TRIPOS>ATOM
      1 CL        137.2477  141.2612  162.8648 Cl      1  UNL1       -0.0810
      2 C         138.3042  140.5320  162.0889 C.ar    1  UNL1        0.0711
      3 C         138.2272  140.4703  160.5921 C.ar    1  UNL1        0.0157
      4 C         139.2837  139.7411  159.8162 C.ar    1  UNL1        0.0379
      5 C         139.2067  139.6794  158.3195 C.ar    1  UNL1        0.1033
      6 N         140.2632  138.9502  157.5436 N.ar    1  UNL1       -0.2120
      7 C         141.3968  138.2827  158.2644 C.ar    1  UNL1        0.2208
      8 N         141.4738  138.3444  159.7611 N.ar    1  UNL1       -0.2135
      9 C         140.4173  139.0736  160.5370 C.ar    1  UNL1        0.0869
     10 C         140.4942  139.1353  162.0338 C.ar    1  UNL1        0.0346
     11 C         139.4377  139.8645  162.8097 C.ar    1  UNL1        0.0601
     12 N         139.5147  139.9263  164.3065 N.pl3   1  UNL1       -0.3040
     13 C         140.4741  140.8694  164.9699 C.3     1  UNL1        0.1081
     14 C         140.5511  140.9312  166.4666 C.3     1  UNL1        0.0939
     15 N         139.6687  140.0498  167.2999 N.3     1  UNL1       -0.2668
     16 C         138.7094  139.1067  166.6366 C.3     1  UNL1        0.0939
     17 C         138.6323  139.0449  165.1399 C.3     1  UNL1        0.1081
     18 C         139.7457  140.1116  168.7967 C.3     1  UNL1        0.1173
     19 C         140.8334  139.9193  169.8116 C.3     1  UNL1        0.1606
     20 O         139.8547  140.1988  170.9135 O.3     1  UNL1       -0.3507
     21 C         138.7670  140.3911  169.8985 C.3     1  UNL1        0.1606
     22 N         142.4533  137.5535  157.4885 N.pl3   1  UNL1       -0.2794
     23 H         143.3917  137.8471  157.5387 H       1  UNL1        0.1552
     24 C         142.0801  136.3771  156.6360 C.ar    1  UNL1        0.1001
     25 C         141.1280  136.3947  155.4771 C.ar    1  UNL1        0.1372
     26 N         141.0530  135.0050  154.9177 N.ar    1  UNL1       -0.1656
     27 N         141.9587  134.1284  155.7309 N.ar    1  UNL1       -0.2409
     28 C         142.5935  134.9764  156.7929 C.ar    1  UNL1        0.1497
     29 CL        143.5702  134.5062  157.8297 Cl      1  UNL1       -0.0603
     30 C         142.1891  132.6614  155.5193 C.3     1  UNL1        0.1063
     31 C         141.6625  131.3007  155.1709 C.3     1  UNL1        0.0264
     32 C         143.1147  131.4811  155.5011 C.3     1  UNL1        0.0264
@<TRIPOS>BOND
     1     1     2    1
     2     2     3   ar
     3     3     4   ar
     4     4     5   ar
     5     5     6   ar
     6     6     7   ar
     7     7    22    1
     8    22    24    1
     9    24    25   ar
    10    25    26   ar
    11    26    27   ar
    12    27    30    1
    13    30    31    1
    14    31    32    1
    15    27    28   ar
    16    28    29    1
    17     7     8   ar
    18     8     9   ar
    19     9    10   ar
    20    10    11   ar
    21    11    12    1
    22    12    13    1
    23    13    14    1
    24    14    15    1
    25    15    18    1
    26    18    19    1
    27    19    20    1
    28    20    21    1
    29    15    16    1
    30    16    17    1
    31    11     2   ar
    32    17    12    1
    33     9     4   ar
    34    21    18    1
    35    28    24   ar
    36    32    30    1
    37    22    23    1
@<TRIPOS>MOLECULE
*****
 32 37 0 0 0
SMALL
GASTEIGER

@<TRIPOS>ATOM
      1 CL        143.6581  144.8521  164.3701 Cl      1  UNL1       -0.0810
      2 C         143.4826  143.6280  163.5210 C.ar    1  UNL1        0.0711
      3 C         143.9455  143.6323  162.0942 C.ar    1  UNL1        0.0157
      4 C         143.7701  142.4083  161.2451 C.ar    1  UNL1        0.0379
      5 C         144.2329  142.4126  159.8183 C.ar    1  UNL1        0.1033
      6 N         144.0575  141.1885  158.9693 N.ar    1  UNL1       -0.2120
      7 C         143.4192  139.9602  159.5470 C.ar    1  UNL1        0.2208
      8 N         142.9563  139.9559  160.9738 N.ar    1  UNL1       -0.2135
      9 C         143.1318  141.1799  161.8228 C.ar    1  UNL1        0.0869
     10 C         142.6689  141.1757  163.2497 C.ar    1  UNL1        0.0346
     11 C         142.8443  142.3997  164.0987 C.ar    1  UNL1        0.0601
     12 N         142.3815  142.3954  165.5256 N.pl3   1  UNL1       -0.3040
     13 C         143.3609  142.1330  166.6309 C.3     1  UNL1        0.1081
     14 C         142.8981  142.1288  168.0577 C.3     1  UNL1        0.0939
     15 N         141.4559  142.3869  168.3791 N.3     1  UNL1       -0.2668
     16 C         140.4765  142.6493  167.2737 C.3     1  UNL1        0.0939
     17 C         140.9393  142.6536  165.8470 C.3     1  UNL1        0.1081
     18 C         140.9931  142.3826  169.8060 C.3     1  UNL1        0.1173
     19 C         139.9162  143.0904  170.5738 C.3     1  UNL1        0.1606
     20 O         140.3384  142.3767  171.8238 O.3     1  UNL1       -0.3507
     21 C         141.4152  141.6689  171.0559 C.3     1  UNL1        0.1606
     22 N         143.2437  138.7361  158.6979 N.pl3   1  UNL1       -0.2794
     23 H         143.9941  138.1108  158.5747 H       1  UNL1        0.1552
     24 C         141.9251  138.4649  158.0364 C.ar    1  UNL1        0.1001
     25 C         140.5732  138.6275  158.6655 C.ar    1  UNL1        0.1372
     26 N         139.5394  138.2465  157.6476 N.ar    1  UNL1       -0.1656
     27 N         140.2524  137.8484  156.3894 N.ar    1  UNL1       -0.2409
     28 C         141.7269  137.9834  156.6297 C.ar    1  UNL1        0.1497
     29 CL        142.8125  137.6885  155.6375 Cl      1  UNL1       -0.0603
     30 C         139.6047  137.3950  155.1147 C.3     1  UNL1        0.1063
     31 C         138.4107  137.3530  154.2077 C.3     1  UNL1        0.0264
     32 C         139.6768  136.6516  153.8138 C.3     1  UNL1        0.0264
@<TRIPOS>BOND
     1     1     2    1
     2     2     3   ar
     3     3     4   ar
     4     4     5   ar
     5     5     6   ar
     6     6     7   ar
     7     7    22    1
     8    22    24    1
     9    24    25   ar
    10    25    26   ar
    11    26    27   ar
    12    27    30    1
    13    30    31    1
    14    31    32    1
    15    27    28   ar
    16    28    29    1
    17     7     8   ar
    18     8     9   ar
    19     9    10   ar
    20    10    11   ar
    21    11    12    1
    22    12    13    1
    23    13    14    1
    24    14    15    1
    25    15    18    1
    26    18    19    1
    27    19    20    1
    28    20    21    1
    29    15    16    1
    30    16    17    1
    31    11     2   ar
    32    17    12    1
    33     9     4   ar
    34    21    18    1
    35    28    24   ar
    36    32    30    1
    37    22    23    1
@<TRIPOS>MOLECULE
*****
 32 37 0 0 0
SMALL
GASTEIGER

@<TRIPOS>ATOM
      1 CL        144.6334  143.1865  165.0673 Cl      1  UNL1       -0.0810
      2 C         144.0917  142.6133  163.7913 C.ar    1  UNL1        0.0711
      3 C         144.7299  142.9659  162.4804 C.ar    1  UNL1        0.0157
      4 C         144.1882  142.3928  161.2044 C.ar    1  UNL1        0.0379
      5 C         144.8263  142.7454  159.8935 C.ar    1  UNL1        0.1033
      6 N         144.2847  142.1722  158.6175 N.ar    1  UNL1       -0.2120
      7 C         143.1049  141.2465  158.6525 C.ar    1  UNL1        0.2208
      8 N         142.4668  140.8939  159.9633 N.ar    1  UNL1       -0.2135
      9 C         143.0085  141.4670  161.2393 C.ar    1  UNL1        0.0869
     10 C         142.3704  141.1144  162.5503 C.ar    1  UNL1        0.0346
     11 C         142.9120  141.6876  163.8262 C.ar    1  UNL1        0.0601
     12 N         142.2739  141.3350  165.1372 N.pl3   1  UNL1       -0.3040
     13 C         142.6881  140.0886  165.8617 C.3     1  UNL1        0.1081
     14 C         142.0501  139.7360  167.1726 C.3     1  UNL1        0.0939
     15 N         140.9978  140.6297  167.7590 N.3     1  UNL1       -0.2668
     16 C         140.5836  141.8761  167.0344 C.3     1  UNL1        0.0939
     17 C         141.2216  142.2287  165.7235 C.3     1  UNL1        0.1081
     18 C         140.3597  140.2772  169.0700 C.3     1  UNL1        0.1173
     19 C         138.9608  140.3064  169.6105 C.3     1  UNL1        0.1606
     20 O         139.4572  139.7785  170.9239 O.3     1  UNL1       -0.3507
     21 C         140.8562  139.7493  170.3833 C.3     1  UNL1        0.1606
     22 N         142.5633  140.6734  157.3764 N.pl3   1  UNL1       -0.2794
     23 H         141.8854  141.1692  156.8628 H       1  UNL1        0.1552
     24 C         143.0545  139.3448  156.8830 C.ar    1  UNL1        0.1001
     25 C         144.1183  139.1270  155.8482 C.ar    1  UNL1        0.1372
     26 N         144.2894  137.6483  155.6634 N.ar    1  UNL1       -0.1656
     27 N         143.3313  136.9521  156.5841 N.ar    1  UNL1       -0.2409
     28 C         142.5682  138.0006  157.3378 C.ar    1  UNL1        0.1497
     29 CL        141.5052  137.7492  158.3659 Cl      1  UNL1       -0.0603
     30 C         143.1656  135.4681  156.7261 C.3     1  UNL1        0.1063
     31 C         143.4190  134.1995  157.4853 C.3     1  UNL1        0.0264
     32 C         142.6253  134.1663  156.2128 C.3     1  UNL1        0.0264
@<TRIPOS>BOND
     1     1     2    1
     2     2     3   ar
     3     3     4   ar
     4     4     5   ar
     5     5     6   ar
     6     6     7   ar
     7     7    22    1
     8    22    24    1
     9    24    25   ar
    10    25    26   ar
    11    26    27   ar
    12    27    30    1
    13    30    31    1
    14    31    32    1
    15    27    28   ar
    16    28    29    1
    17     7     8   ar
    18     8     9   ar
    19     9    10   ar
    20    10    11   ar
    21    11    12    1
    22    12    13    1
    23    13    14    1
    24    14    15    1
    25    15    18    1
    26    18    19    1
    27    19    20    1
    28    20    21    1
    29    15    16    1
    30    16    17    1
    31    11     2   ar
    32    17    12    1
    33     9     4   ar
    34    21    18    1
    35    28    24   ar
    36    32    30    1
    37    22    23    1
@<TRIPOS>MOLECULE
*****
 32 37 0 0 0
SMALL
GASTEIGER

@<TRIPOS>ATOM
      1 CL        143.3903  144.5939  164.0937 Cl      1  UNL1       -0.0810
      2 C         142.7582  143.5580  163.2120 C.ar    1  UNL1        0.0711
      3 C         142.9799  143.5989  161.7290 C.ar    1  UNL1        0.0157
      4 C         142.3477  142.5630  160.8473 C.ar    1  UNL1        0.0379
      5 C         142.5694  142.6040  159.3643 C.ar    1  UNL1        0.1033
      6 N         141.9373  141.5681  158.4827 N.ar    1  UNL1       -0.2120
      7 C         141.0835  140.4913  159.0840 C.ar    1  UNL1        0.2208
      8 N         140.8619  140.4503  160.5669 N.ar    1  UNL1       -0.2135
      9 C         141.4940  141.4862  161.4485 C.ar    1  UNL1        0.0869
     10 C         141.2723  141.4453  162.9316 C.ar    1  UNL1        0.0346
     11 C         141.9044  142.4811  163.8132 C.ar    1  UNL1        0.0601
     12 N         141.6828  142.4402  165.2963 N.pl3   1  UNL1       -0.3040
     13 C         142.7100  141.8124  166.1910 C.3     1  UNL1        0.1081
     14 C         142.4885  141.7715  167.6740 C.3     1  UNL1        0.0939
     15 N         141.2396  142.3583  168.2621 N.3     1  UNL1       -0.2668
     16 C         140.2123  142.9861  167.3674 C.3     1  UNL1        0.0939
     17 C         140.4339  143.0270  165.8844 C.3     1  UNL1        0.1081
     18 C         141.0180  142.3174  169.7452 C.3     1  UNL1        0.1173
     19 C         139.9097  142.7388  170.6640 C.3     1  UNL1        0.1606
     20 O         140.7044  142.2596  171.8424 O.3     1  UNL1       -0.3507
     21 C         141.8127  141.8382  170.9236 C.3     1  UNL1        0.1606
     22 N         140.4514  139.4554  158.2022 N.pl3   1  UNL1       -0.2794
     23 H         139.5050  139.5395  157.9444 H       1  UNL1        0.1552
     24 C         141.2612  138.2913  157.7133 C.ar    1  UNL1        0.1001
     25 C         142.6639  137.9574  158.1269 C.ar    1  UNL1        0.1372
     26 N         143.0802  136.7164  157.3942 N.ar    1  UNL1       -0.1656
     27 N         141.9347  136.2834  156.5278 N.ar    1  UNL1       -0.2409
     28 C         140.8106  137.2567  156.7251 C.ar    1  UNL1        0.1497
     29 CL        139.4710  137.2046  156.0522 Cl      1  UNL1       -0.0603
     30 C         141.9167  135.0871  155.6231 C.3     1  UNL1        0.1063
     31 C         141.6067  133.6378  155.3921 C.3     1  UNL1        0.0264
     32 C         142.1954  134.4643  154.2872 C.3     1  UNL1        0.0264
@<TRIPOS>BOND
     1     1     2    1
     2     2     3   ar
     3     3     4   ar
     4     4     5   ar
     5     5     6   ar
     6     6     7   ar
     7     7    22    1
     8    22    24    1
     9    24    25   ar
    10    25    26   ar
    11    26    27   ar
    12    27    30    1
    13    30    31    1
    14    31    32    1
    15    27    28   ar
    16    28    29    1
    17     7     8   ar
    18     8     9   ar
    19     9    10   ar
    20    10    11   ar
    21    11    12    1
    22    12    13    1
    23    13    14    1
    24    14    15    1
    25    15    18    1
    26    18    19    1
    27    19    20    1
    28    20    21    1
    29    15    16    1
    30    16    17    1
    31    11     2   ar
    32    17    12    1
    33     9     4   ar
    34    21    18    1
    35    28    24   ar
    36    32    30    1
    37    22    23    1
@<TRIPOS>MOLECULE
*****
 32 37 0 0 0
SMALL
GASTEIGER

@<TRIPOS>ATOM
      1 CL        137.5396  142.5602  164.0604 Cl      1  UNL1       -0.0810
      2 C         138.6437  142.0554  163.1793 C.ar    1  UNL1        0.0711
      3 C         138.5092  142.1360  161.6876 C.ar    1  UNL1        0.0157
      4 C         139.6132  141.6312  160.8065 C.ar    1  UNL1        0.0379
      5 C         139.4787  141.7119  159.3147 C.ar    1  UNL1        0.1033
      6 N         140.5827  141.2070  158.4338 N.ar    1  UNL1       -0.2120
      7 C         141.8213  140.6215  159.0445 C.ar    1  UNL1        0.2208
      8 N         141.9559  140.5408  160.5363 N.ar    1  UNL1       -0.2135
      9 C         140.8519  141.0457  161.4172 C.ar    1  UNL1        0.0869
     10 C         140.9864  140.9650  162.9091 C.ar    1  UNL1        0.0346
     11 C         139.8823  141.4699  163.7900 C.ar    1  UNL1        0.0601
     12 N         140.0169  141.3892  165.2819 N.pl3   1  UNL1       -0.3040
     13 C         140.5499  142.5613  166.0513 C.3     1  UNL1        0.1081
     14 C         140.6845  142.4807  167.5430 C.3     1  UNL1        0.0939
     15 N         140.2860  141.2280  168.2654 N.3     1  UNL1       -0.2668
     16 C         139.7529  140.0559  167.4960 C.3     1  UNL1        0.0939
     17 C         139.6184  140.1365  166.0042 C.3     1  UNL1        0.1081
     18 C         140.4205  141.1474  169.7572 C.3     1  UNL1        0.1173
     19 C         140.2209  140.0718  170.7835 C.3     1  UNL1        0.1606
     20 O         140.6107  141.0332  171.8669 O.3     1  UNL1       -0.3507
     21 C         140.8103  142.1088  170.8406 C.3     1  UNL1        0.1606
     22 N         142.9254  140.1167  158.1634 N.pl3   1  UNL1       -0.2794
     23 H         142.8706  139.2142  157.7739 H       1  UNL1        0.1552
     24 C         144.1129  140.9868  157.8759 C.ar    1  UNL1        0.1001
     25 C         144.5267  142.1995  158.6558 C.ar    1  UNL1        0.1372
     26 N         145.7646  142.7593  158.0200 N.ar    1  UNL1       -0.1656
     27 N         146.1158  141.8926  156.8471 N.ar    1  UNL1       -0.2409
     28 C         145.0949  140.7972  156.7581 C.ar    1  UNL1        0.1497
     29 CL        145.0620  139.7040  155.7315 Cl      1  UNL1       -0.0603
     30 C         147.2829  142.0872  155.9251 C.3     1  UNL1        0.1063
     31 C         148.6836  141.7442  155.5125 C.3     1  UNL1        0.0264
     32 C         147.9036  142.7672  154.7409 C.3     1  UNL1        0.0264
@<TRIPOS>BOND
     1     1     2    1
     2     2     3   ar
     3     3     4   ar
     4     4     5   ar
     5     5     6   ar
     6     6     7   ar
     7     7    22    1
     8    22    24    1
     9    24    25   ar
    10    25    26   ar
    11    26    27   ar
    12    27    30    1
    13    30    31    1
    14    31    32    1
    15    27    28   ar
    16    28    29    1
    17     7     8   ar
    18     8     9   ar
    19     9    10   ar
    20    10    11   ar
    21    11    12    1
    22    12    13    1
    23    13    14    1
    24    14    15    1
    25    15    18    1
    26    18    19    1
    27    19    20    1
    28    20    21    1
    29    15    16    1
    30    16    17    1
    31    11     2   ar
    32    17    12    1
    33     9     4   ar
    34    21    18    1
    35    28    24   ar
    36    32    30    1
    37    22    23    1
@<TRIPOS>MOLECULE
*****
 32 37 0 0 0
SMALL
GASTEIGER

@<TRIPOS>ATOM
      1 CL        141.1981  141.9102  160.5585 Cl      1  UNL1       -0.0810
      2 C         141.6588  140.6601  159.8692 C.ar    1  UNL1        0.0711
      3 C         142.2900  140.7416  158.5110 C.ar    1  UNL1        0.0157
      4 C         142.7506  139.4915  157.8217 C.ar    1  UNL1        0.0379
      5 C         143.3819  139.5730  156.4634 C.ar    1  UNL1        0.1033
      6 N         143.8425  138.3229  155.7742 N.ar    1  UNL1       -0.2120
      7 C         143.6719  136.9913  156.4433 C.ar    1  UNL1        0.2208
      8 N         143.0407  136.9097  157.8015 N.ar    1  UNL1       -0.2135
      9 C         142.5801  138.1598  158.4907 C.ar    1  UNL1        0.0869
     10 C         141.9488  138.0783  159.8491 C.ar    1  UNL1        0.0346
     11 C         141.4882  139.3284  160.5382 C.ar    1  UNL1        0.0601
     12 N         140.8569  139.2470  161.8966 N.pl3   1  UNL1       -0.3040
     13 C         139.4565  138.7300  162.0429 C.3     1  UNL1        0.1081
     14 C         138.8252  138.6485  163.4012 C.3     1  UNL1        0.0939
     15 N         139.5944  139.0839  164.6130 N.3     1  UNL1       -0.2668
     16 C         140.9949  139.6009  164.4667 C.3     1  UNL1        0.0939
     17 C         141.6262  139.6824  163.1084 C.3     1  UNL1        0.1081
     18 C         138.9632  139.0024  165.9713 C.3     1  UNL1        0.1173
     19 C         137.8475  138.2028  166.5762 C.3     1  UNL1        0.1606
     20 O         138.0704  138.8871  167.8922 O.3     1  UNL1       -0.3507
     21 C         139.1861  139.6868  167.2874 C.3     1  UNL1        0.1606
     22 N         144.1325  135.7411  155.7540 N.pl3   1  UNL1       -0.2794
     23 H         144.8828  135.7778  155.1176 H       1  UNL1        0.1552
     24 C         143.4501  134.4351  156.0345 C.ar    1  UNL1        0.1001
     25 C         143.4969  133.6757  157.3271 C.ar    1  UNL1        0.1372
     26 N         142.6768  132.4305  157.1631 N.ar    1  UNL1       -0.1656
     27 N         142.1232  132.4203  155.7690 N.ar    1  UNL1       -0.2409
     28 C         142.6012  133.6593  155.0715 C.ar    1  UNL1        0.1497
     29 CL        142.2856  134.0532  153.6590 Cl      1  UNL1       -0.0603
     30 C         141.2458  131.3578  155.1764 C.3     1  UNL1        0.1063
     31 C         141.0127  129.9230  154.8061 C.3     1  UNL1        0.0264
     32 C         139.9592  130.9521  154.5205 C.3     1  UNL1        0.0264
@<TRIPOS>BOND
     1     1     2    1
     2     2     3   ar
     3     3     4   ar
     4     4     5   ar
     5     5     6   ar
     6     6     7   ar
     7     7    22    1
     8    22    24    1
     9    24    25   ar
    10    25    26   ar
    11    26    27   ar
    12    27    30    1
    13    30    31    1
    14    31    32    1
    15    27    28   ar
    16    28    29    1
    17     7     8   ar
    18     8     9   ar
    19     9    10   ar
    20    10    11   ar
    21    11    12    1
    22    12    13    1
    23    13    14    1
    24    14    15    1
    25    15    18    1
    26    18    19    1
    27    19    20    1
    28    20    21    1
    29    15    16    1
    30    16    17    1
    31    11     2   ar
    32    17    12    1
    33     9     4   ar
    34    21    18    1
    35    28    24   ar
    36    32    30    1
    37    22    23    1
@<TRIPOS>MOLECULE
*****
 32 37 0 0 0
SMALL
GASTEIGER

@<TRIPOS>ATOM
      1 CL        142.1177  137.9849  164.6768 Cl      1  UNL1       -0.0810
      2 C         141.1665  138.6036  163.6958 C.ar    1  UNL1        0.0711
      3 C         141.1428  138.1293  162.2729 C.ar    1  UNL1        0.0157
      4 C         140.1915  138.7480  161.2918 C.ar    1  UNL1        0.0379
      5 C         140.1678  138.2737  159.8690 C.ar    1  UNL1        0.1033
      6 N         139.2166  138.8924  158.8880 N.ar    1  UNL1       -0.2120
      7 C         138.2891  139.9853  159.3298 C.ar    1  UNL1        0.2208
      8 N         138.3128  140.4596  160.7527 N.ar    1  UNL1       -0.2135
      9 C         139.2640  139.8409  161.7337 C.ar    1  UNL1        0.0869
     10 C         139.2878  140.3152  163.1566 C.ar    1  UNL1        0.0346
     11 C         140.2390  139.6966  164.1376 C.ar    1  UNL1        0.0601
     12 N         140.2627  140.1708  165.5605 N.pl3   1  UNL1       -0.3040
     13 C         139.5008  139.4220  166.6134 C.3     1  UNL1        0.1081
     14 C         139.5245  139.8962  168.0363 C.3     1  UNL1        0.0939
     15 N         140.3101  141.1192  168.4061 N.3     1  UNL1       -0.2668
     16 C         141.0721  141.8681  167.3532 C.3     1  UNL1        0.0939
     17 C         141.0483  141.3939  165.9304 C.3     1  UNL1        0.1081
     18 C         140.3339  141.5935  169.8290 C.3     1  UNL1        0.1173
     19 C         140.7258  140.9858  171.1432 C.3     1  UNL1        0.1606
     20 O         140.3675  142.2641  171.8413 O.3     1  UNL1       -0.3507
     21 C         139.9755  142.8719  170.5271 C.3     1  UNL1        0.1606
     22 N         137.3379  140.6040  158.3488 N.pl3   1  UNL1       -0.2794
     23 H         136.3981  140.3119  158.3232 H       1  UNL1        0.1552
     24 C         137.8186  141.6676  157.4067 C.ar    1  UNL1        0.1001
     25 C         137.5878  141.7029  155.9250 C.ar    1  UNL1        0.1372
     26 N         138.2411  142.9398  155.3834 N.ar    1  UNL1       -0.1656
     27 N         138.8756  143.6690  156.5304 N.ar    1  UNL1       -0.2409
     28 C         138.6145  142.8828  157.7809 C.ar    1  UNL1        0.1497
     29 CL        139.0695  143.2476  159.1628 Cl      1  UNL1       -0.0603
     30 C         139.6375  144.9581  156.4424 C.3     1  UNL1        0.1063
     31 C         140.3846  146.0738  157.1112 C.3     1  UNL1        0.0264
     32 C         140.2101  146.0752  155.6213 C.3     1  UNL1        0.0264
@<TRIPOS>BOND
     1     1     2    1
     2     2     3   ar
     3     3     4   ar
     4     4     5   ar
     5     5     6   ar
     6     6     7   ar
     7     7    22    1
     8    22    24    1
     9    24    25   ar
    10    25    26   ar
    11    26    27   ar
    12    27    30    1
    13    30    31    1
    14    31    32    1
    15    27    28   ar
    16    28    29    1
    17     7     8   ar
    18     8     9   ar
    19     9    10   ar
    20    10    11   ar
    21    11    12    1
    22    12    13    1
    23    13    14    1
    24    14    15    1
    25    15    18    1
    26    18    19    1
    27    19    20    1
    28    20    21    1
    29    15    16    1
    30    16    17    1
    31    11     2   ar
    32    17    12    1
    33     9     4   ar
    34    21    18    1
    35    28    24   ar
    36    32    30    1
    37    22    23    1
