@<TRIPOS>MOLECULE
*****
 23 24 0 0 0
SMALL
GASTEIGER

@<TRIPOS>ATOM
      1 C         139.4227  140.0132  168.2847 C.3     1  UNL1        0.1895
      2 C         140.6376  140.5283  167.5714 C.ar    1  UNL1        0.0172
      3 C         140.7086  141.9674  167.1544 C.ar    1  UNL1       -0.0008
      4 C         141.9234  142.4825  166.4411 C.ar    1  UNL1       -0.0002
      5 C         143.0673  141.5586  166.1447 C.ar    1  UNL1       -0.0000
      6 C         142.9963  140.1194  166.5617 C.ar    1  UNL1       -0.0002
      7 C         141.7814  139.6043  167.2750 C.ar    1  UNL1       -0.0008
      8 C         139.1610  140.4148  169.7061 C.3     1  UNL1        0.0653
      9 C         139.9923  139.8384  170.8136 C.3     1  UNL1        0.0727
     10 C         141.5629  141.8834  171.1314 C.3     1  UNL1        0.0859
     11 N         140.7761  140.7467  171.7137 N.3     1  UNL1       -0.2962
     12 H         140.1116  141.1549  172.3711 H       1  UNL1        0.1233
     13 O         138.4697  139.0965  167.5767 O.3     1  UNL1       -0.4747
     14 C         138.5031  138.9898  166.0808 C.ar    1  UNL1        0.1388
     15 C         138.9312  137.7082  165.4297 C.ar    1  UNL1        0.0369
     16 C         138.9646  137.6016  163.9339 C.ar    1  UNL1        0.0070
     17 C         138.5698  138.7766  163.0892 C.ar    1  UNL1        0.0716
     18 C         138.1417  140.0583  163.7403 C.ar    1  UNL1        0.0070
     19 C         138.1084  140.1649  165.2361 C.ar    1  UNL1        0.0369
     20 C         138.6032  138.6699  161.5933 C.3     1  UNL1        0.4186
     21 F         138.6367  138.5632  160.0975 F       1  UNL1       -0.1659
     22 F         137.4906  139.6712  161.4970 F       1  UNL1       -0.1659
     23 F         139.7159  137.6686  161.6896 F       1  UNL1       -0.1659
@<TRIPOS>BOND
     1    10    11    1
     2    11     9    1
     3     9     8    1
     4     8     1    1
     5     1    13    1
     6    13    14    1
     7    14    15   ar
     8    15    16   ar
     9    16    17   ar
    10    17    20    1
    11    20    21    1
    12    20    22    1
    13    20    23    1
    14    17    18   ar
    15    18    19   ar
    16     1     2    1
    17     2     3   ar
    18     3     4   ar
    19     4     5   ar
    20     5     6   ar
    21     6     7   ar
    22    19    14   ar
    23     7     2   ar
    24    11    12    1
@<TRIPOS>MOLECULE
*****
 23 24 0 0 0
SMALL
GASTEIGER

@<TRIPOS>ATOM
      1 C         140.6853  143.9850  164.2485 C.3     1  UNL1        0.1895
      2 C         142.0921  143.5483  163.9649 C.ar    1  UNL1        0.0172
      3 C         142.6434  143.6516  162.5738 C.ar    1  UNL1       -0.0008
      4 C         144.0501  143.2149  162.2902 C.ar    1  UNL1       -0.0002
      5 C         144.9055  142.6750  163.3978 C.ar    1  UNL1       -0.0000
      6 C         144.3542  142.5717  164.7890 C.ar    1  UNL1       -0.0002
      7 C         142.9475  143.0084  165.0726 C.ar    1  UNL1       -0.0008
      8 C         139.9296  144.7875  163.2311 C.3     1  UNL1        0.0653
      9 C         138.4383  144.6607  163.1330 C.3     1  UNL1        0.0727
     10 C         138.6382  142.8487  161.2818 C.3     1  UNL1        0.0859
     11 N         137.8245  143.8761  162.0116 N.3     1  UNL1       -0.2962
     12 H         137.0164  143.3900  162.4001 H       1  UNL1        0.1233
     13 O         140.0343  143.6192  165.5494 O.3     1  UNL1       -0.4747
     14 C         139.5397  142.2209  165.7735 C.ar    1  UNL1        0.1388
     15 C         139.9843  141.4529  166.9828 C.ar    1  UNL1        0.0369
     16 C         139.4898  140.0546  167.2069 C.ar    1  UNL1        0.0070
     17 C         138.5506  139.4244  166.2216 C.ar    1  UNL1        0.0716
     18 C         138.1060  140.1923  165.0123 C.ar    1  UNL1        0.0070
     19 C         138.6006  141.5906  164.7882 C.ar    1  UNL1        0.0369
     20 C         138.0561  138.0260  166.4457 C.3     1  UNL1        0.4186
     21 F         137.5615  136.6278  166.6698 F       1  UNL1       -0.1659
     22 F         138.8688  137.5513  165.2778 F       1  UNL1       -0.1659
     23 F         137.2433  138.5007  167.6136 F       1  UNL1       -0.1659
@<TRIPOS>BOND
     1    10    11    1
     2    11     9    1
     3     9     8    1
     4     8     1    1
     5     1    13    1
     6    13    14    1
     7    14    15   ar
     8    15    16   ar
     9    16    17   ar
    10    17    20    1
    11    20    21    1
    12    20    22    1
    13    20    23    1
    14    17    18   ar
    15    18    19   ar
    16     1     2    1
    17     2     3   ar
    18     3     4   ar
    19     4     5   ar
    20     5     6   ar
    21     6     7   ar
    22    19    14   ar
    23     7     2   ar
    24    11    12    1
@<TRIPOS>MOLECULE
*****
 23 24 0 0 0
SMALL
GASTEIGER

@<TRIPOS>ATOM
      1 C         141.7038  140.3232  167.6567 C.3     1  UNL1        0.1895
      2 C         140.6535  139.6601  166.8158 C.ar    1  UNL1        0.0172
      3 C         139.2243  139.6499  167.2710 C.ar    1  UNL1       -0.0008
      4 C         138.1740  138.9869  166.4301 C.ar    1  UNL1       -0.0002
      5 C         138.5529  138.3340  165.1339 C.ar    1  UNL1       -0.0000
      6 C         139.9821  138.3442  164.6786 C.ar    1  UNL1       -0.0002
      7 C         141.0325  139.0072  165.5195 C.ar    1  UNL1       -0.0008
      8 C         142.6665  139.4895  168.4494 C.3     1  UNL1        0.0653
      9 C         142.3375  139.1019  169.8606 C.3     1  UNL1        0.0727
     10 C         140.7933  140.7557  171.1375 C.3     1  UNL1        0.0859
     11 N         140.9965  139.4438  170.4390 N.3     1  UNL1       -0.2962
     12 H         140.3275  139.4132  169.6696 H       1  UNL1        0.1233
     13 O         141.7915  141.8198  167.7050 O.3     1  UNL1       -0.4747
     14 C         141.2589  142.6394  166.5671 C.ar    1  UNL1        0.1388
     15 C         139.8939  143.2541  166.6600 C.ar    1  UNL1        0.0369
     16 C         139.3614  144.0737  165.5222 C.ar    1  UNL1        0.0070
     17 C         140.1940  144.2785  164.2914 C.ar    1  UNL1        0.0716
     18 C         141.5591  143.6638  164.1985 C.ar    1  UNL1        0.0070
     19 C         142.0915  142.8443  165.3364 C.ar    1  UNL1        0.0369
     20 C         139.6615  145.0981  163.1535 C.3     1  UNL1        0.4186
     21 F         139.1290  145.9177  162.0157 F       1  UNL1       -0.1659
     22 F         138.2725  144.6226  163.4610 F       1  UNL1       -0.1659
     23 F         141.0505  145.5736  162.8460 F       1  UNL1       -0.1659
@<TRIPOS>BOND
     1    10    11    1
     2    11     9    1
     3     9     8    1
     4     8     1    1
     5     1    13    1
     6    13    14    1
     7    14    15   ar
     8    15    16   ar
     9    16    17   ar
    10    17    20    1
    11    20    21    1
    12    20    22    1
    13    20    23    1
    14    17    18   ar
    15    18    19   ar
    16     1     2    1
    17     2     3   ar
    18     3     4   ar
    19     4     5   ar
    20     5     6   ar
    21     6     7   ar
    22    19    14   ar
    23     7     2   ar
    24    11    12    1
@<TRIPOS>MOLECULE
*****
 23 24 0 0 0
SMALL
GASTEIGER

@<TRIPOS>ATOM
      1 C         142.1099  140.0869  167.6063 C.3     1  UNL1        0.1895
      2 C         142.9086  140.1464  166.3380 C.ar    1  UNL1        0.0172
      3 C         143.1357  138.8996  165.5356 C.ar    1  UNL1       -0.0008
      4 C         143.9344  138.9591  164.2673 C.ar    1  UNL1       -0.0002
      5 C         144.5060  140.2653  163.8015 C.ar    1  UNL1       -0.0000
      6 C         144.2790  141.5121  164.6040 C.ar    1  UNL1       -0.0002
      7 C         143.4802  141.4527  165.8722 C.ar    1  UNL1       -0.0008
      8 C         142.8082  139.9479  168.9266 C.3     1  UNL1        0.0653
      9 C         142.2163  139.0845  170.0009 C.3     1  UNL1        0.0727
     10 C         140.5675  140.8150  171.0191 C.3     1  UNL1        0.0859
     11 N         140.8693  139.4154  170.5718 N.3     1  UNL1       -0.2962
     12 H         140.1807  139.1797  169.8572 H       1  UNL1        0.1233
     13 O         140.6130  140.1665  167.5544 O.3     1  UNL1       -0.4747
     14 C         139.9449  141.1192  166.6077 C.ar    1  UNL1        0.1388
     15 C         140.2350  142.5884  166.6931 C.ar    1  UNL1        0.0369
     16 C         139.5670  143.5410  165.7464 C.ar    1  UNL1        0.0070
     17 C         138.6089  143.0245  164.7144 C.ar    1  UNL1        0.0716
     18 C         138.3187  141.5553  164.6290 C.ar    1  UNL1        0.0070
     19 C         138.9868  140.6027  165.5756 C.ar    1  UNL1        0.0369
     20 C         137.9408  143.9772  163.7677 C.3     1  UNL1        0.4186
     21 F         137.2728  144.9299  162.8211 F       1  UNL1       -0.1659
     22 F         137.2209  142.8307  163.1219 F       1  UNL1       -0.1659
     23 F         138.6608  145.1237  164.4136 F       1  UNL1       -0.1659
@<TRIPOS>BOND
     1    10    11    1
     2    11     9    1
     3     9     8    1
     4     8     1    1
     5     1    13    1
     6    13    14    1
     7    14    15   ar
     8    15    16   ar
     9    16    17   ar
    10    17    20    1
    11    20    21    1
    12    20    22    1
    13    20    23    1
    14    17    18   ar
    15    18    19   ar
    16     1     2    1
    17     2     3   ar
    18     3     4   ar
    19     4     5   ar
    20     5     6   ar
    21     6     7   ar
    22    19    14   ar
    23     7     2   ar
    24    11    12    1
@<TRIPOS>MOLECULE
*****
 23 24 0 0 0
SMALL
GASTEIGER

@<TRIPOS>ATOM
      1 C         140.2513  140.8011  167.7120 C.3     1  UNL1        0.1895
      2 C         140.0814  139.7244  166.6815 C.ar    1  UNL1        0.0172
      3 C         141.2583  139.2708  165.8698 C.ar    1  UNL1       -0.0008
      4 C         141.0884  138.1941  164.8393 C.ar    1  UNL1       -0.0002
      5 C         139.7416  137.5710  164.6206 C.ar    1  UNL1       -0.0000
      6 C         138.5645  138.0247  165.4324 C.ar    1  UNL1       -0.0002
      7 C         138.7344  139.1014  166.4628 C.ar    1  UNL1       -0.0008
      8 C         139.5925  140.6666  169.0529 C.3     1  UNL1        0.0653
      9 C         140.1880  141.3424  170.2523 C.3     1  UNL1        0.0727
     10 C         140.3102  143.9314  170.0722 C.3     1  UNL1        0.0859
     11 N         139.6995  142.6980  170.6689 N.3     1  UNL1       -0.2962
     12 H         138.7026  142.7302  170.4553 H       1  UNL1        0.1233
     13 O         141.0799  142.0123  167.4016 O.3     1  UNL1       -0.4747
     14 C         140.7232  142.8864  166.2359 C.ar    1  UNL1        0.1388
     15 C         141.6539  142.9908  165.0642 C.ar    1  UNL1        0.0369
     16 C         141.2972  143.8649  163.8986 C.ar    1  UNL1        0.0070
     17 C         140.0099  144.6346  163.9047 C.ar    1  UNL1        0.0716
     18 C         139.0791  144.5303  165.0763 C.ar    1  UNL1        0.0070
     19 C         139.4358  143.6562  166.2420 C.ar    1  UNL1        0.0369
     20 C         139.6532  145.5088  162.7390 C.3     1  UNL1        0.4186
     21 F         139.2965  146.3829  161.5734 F       1  UNL1       -0.1659
     22 F         141.0800  145.9612  162.6417 F       1  UNL1       -0.1659
     23 F         138.2264  145.0563  162.8363 F       1  UNL1       -0.1659
@<TRIPOS>BOND
     1    10    11    1
     2    11     9    1
     3     9     8    1
     4     8     1    1
     5     1    13    1
     6    13    14    1
     7    14    15   ar
     8    15    16   ar
     9    16    17   ar
    10    17    20    1
    11    20    21    1
    12    20    22    1
    13    20    23    1
    14    17    18   ar
    15    18    19   ar
    16     1     2    1
    17     2     3   ar
    18     3     4   ar
    19     4     5   ar
    20     5     6   ar
    21     6     7   ar
    22    19    14   ar
    23     7     2   ar
    24    11    12    1
@<TRIPOS>MOLECULE
*****
 23 24 0 0 0
SMALL
GASTEIGER

@<TRIPOS>ATOM
      1 C         142.0289  143.3299  164.3448 C.3     1  UNL1        0.1895
      2 C         140.5979  143.6143  163.9962 C.ar    1  UNL1        0.0172
      3 C         139.6839  144.2233  165.0178 C.ar    1  UNL1       -0.0008
      4 C         138.2530  144.5076  164.6692 C.ar    1  UNL1       -0.0002
      5 C         137.7360  144.1831  163.2990 C.ar    1  UNL1       -0.0000
      6 C         138.6501  143.5740  162.2774 C.ar    1  UNL1       -0.0002
      7 C         140.0810  143.2897  162.6259 C.ar    1  UNL1       -0.0008
      8 C         143.1011  144.3097  163.9699 C.3     1  UNL1        0.0653
      9 C         144.2047  143.8954  163.0423 C.3     1  UNL1        0.0727
     10 C         145.6221  141.7852  163.5793 C.3     1  UNL1        0.0859
     11 N         144.4994  142.4400  162.8303 N.3     1  UNL1       -0.2962
     12 H         143.6491  141.9296  163.0689 H       1  UNL1        0.1233
     13 O         142.3877  142.0659  165.0682 O.3     1  UNL1       -0.4747
     14 C         141.3146  141.0895  165.4495 C.ar    1  UNL1        0.1388
     15 C         140.8331  140.0772  164.4530 C.ar    1  UNL1        0.0369
     16 C         139.7600  139.1009  164.8343 C.ar    1  UNL1        0.0070
     17 C         139.1685  139.1371  166.2123 C.ar    1  UNL1        0.0716
     18 C         139.6500  140.1494  167.2089 C.ar    1  UNL1        0.0070
     19 C         140.7230  141.1257  166.8275 C.ar    1  UNL1        0.0369
     20 C         138.0954  138.1607  166.5936 C.3     1  UNL1        0.4186
     21 F         137.0224  137.1844  166.9749 F       1  UNL1       -0.1659
     22 F         137.7109  139.0350  167.7503 F       1  UNL1       -0.1659
     23 F         138.4798  137.2865  165.4370 F       1  UNL1       -0.1659
@<TRIPOS>BOND
     1    10    11    1
     2    11     9    1
     3     9     8    1
     4     8     1    1
     5     1    13    1
     6    13    14    1
     7    14    15   ar
     8    15    16   ar
     9    16    17   ar
    10    17    20    1
    11    20    21    1
    12    20    22    1
    13    20    23    1
    14    17    18   ar
    15    18    19   ar
    16     1     2    1
    17     2     3   ar
    18     3     4   ar
    19     4     5   ar
    20     5     6   ar
    21     6     7   ar
    22    19    14   ar
    23     7     2   ar
    24    11    12    1
@<TRIPOS>MOLECULE
*****
 23 24 0 0 0
SMALL
GASTEIGER

@<TRIPOS>ATOM
      1 C         138.8074  140.3277  163.8894 C.3     1  UNL1        0.1895
      2 C         138.9446  141.7856  164.2144 C.ar    1  UNL1        0.0172
      3 C         137.7226  142.6113  164.4882 C.ar    1  UNL1       -0.0008
      4 C         137.8599  144.0692  164.8133 C.ar    1  UNL1       -0.0002
      5 C         139.2191  144.7014  164.8646 C.ar    1  UNL1       -0.0000
      6 C         140.4412  143.8758  164.5908 C.ar    1  UNL1       -0.0002
      7 C         140.3040  142.4179  164.2657 C.ar    1  UNL1       -0.0008
      8 C         138.6286  139.8904  162.4657 C.3     1  UNL1        0.0653
      9 C         138.8629  138.4583  162.0860 C.3     1  UNL1        0.0727
     10 C         141.1951  137.4954  162.7052 C.3     1  UNL1        0.0859
     11 N         139.7183  137.5828  162.9530 N.3     1  UNL1       -0.2962
     12 H         139.5995  137.9113  163.9113 H       1  UNL1        0.1233
     13 O         138.8489  139.3072  164.9879 O.3     1  UNL1       -0.4747
     14 C         139.7912  139.4849  166.1415 C.ar    1  UNL1        0.1388
     15 C         139.2639  139.8972  167.4838 C.ar    1  UNL1        0.0369
     16 C         140.2061  140.0749  168.6374 C.ar    1  UNL1        0.0070
     17 C         141.6755  139.8403  168.4485 C.ar    1  UNL1        0.0716
     18 C         142.2028  139.4281  167.1061 C.ar    1  UNL1        0.0070
     19 C         141.2606  139.2504  165.9526 C.ar    1  UNL1        0.0369
     20 C         142.6177  140.0181  169.6021 C.3     1  UNL1        0.4186
     21 F         143.5599  140.1958  170.7557 F       1  UNL1       -0.1659
     22 F         142.5907  138.5393  169.8521 F       1  UNL1       -0.1659
     23 F         142.6447  141.4968  169.3522 F       1  UNL1       -0.1659
@<TRIPOS>BOND
     1    10    11    1
     2    11     9    1
     3     9     8    1
     4     8     1    1
     5     1    13    1
     6    13    14    1
     7    14    15   ar
     8    15    16   ar
     9    16    17   ar
    10    17    20    1
    11    20    21    1
    12    20    22    1
    13    20    23    1
    14    17    18   ar
    15    18    19   ar
    16     1     2    1
    17     2     3   ar
    18     3     4   ar
    19     4     5   ar
    20     5     6   ar
    21     6     7   ar
    22    19    14   ar
    23     7     2   ar
    24    11    12    1
@<TRIPOS>MOLECULE
*****
 23 24 0 0 0
SMALL
GASTEIGER

@<TRIPOS>ATOM
      1 C         143.7823  140.7022  164.8955 C.3     1  UNL1        0.1895
      2 C         143.3325  142.0994  164.5865 C.ar    1  UNL1        0.0172
      3 C         141.9328  142.3481  164.1080 C.ar    1  UNL1       -0.0008
      4 C         141.4830  143.7453  163.7990 C.ar    1  UNL1       -0.0002
      5 C         142.4328  144.8938  163.9685 C.ar    1  UNL1       -0.0000
      6 C         143.8325  144.6451  164.4471 C.ar    1  UNL1       -0.0002
      7 C         144.2824  143.2479  164.7561 C.ar    1  UNL1       -0.0008
      8 C         144.8000  140.0313  164.0213 C.3     1  UNL1        0.0653
      9 C         144.7560  140.2252  162.5345 C.3     1  UNL1        0.0727
     10 C         143.4200  138.0658  161.9848 C.3     1  UNL1        0.0859
     11 N         144.4907  139.0558  161.6333 N.3     1  UNL1       -0.2962
     12 H         144.2499  139.4377  160.7187 H       1  UNL1        0.1233
     13 O         143.2144  139.9759  166.0787 O.3     1  UNL1       -0.4747
     14 C         142.3961  140.7188  167.0929 C.ar    1  UNL1        0.1388
     15 C         143.0359  141.7741  167.9454 C.ar    1  UNL1        0.0369
     16 C         142.2175  142.5170  168.9595 C.ar    1  UNL1        0.0070
     17 C         140.7593  142.2045  169.1210 C.ar    1  UNL1        0.0716
     18 C         140.1195  141.1491  168.2685 C.ar    1  UNL1        0.0070
     19 C         140.9379  140.4063  167.2544 C.ar    1  UNL1        0.0369
     20 C         139.9409  142.9474  170.1352 C.3     1  UNL1        0.4186
     21 F         139.1226  143.6903  171.1493 F       1  UNL1       -0.1659
     22 F         139.0376  141.7584  170.2773 F       1  UNL1       -0.1659
     23 F         140.8443  144.1364  169.9931 F       1  UNL1       -0.1659
@<TRIPOS>BOND
     1    10    11    1
     2    11     9    1
     3     9     8    1
     4     8     1    1
     5     1    13    1
     6    13    14    1
     7    14    15   ar
     8    15    16   ar
     9    16    17   ar
    10    17    20    1
    11    20    21    1
    12    20    22    1
    13    20    23    1
    14    17    18   ar
    15    18    19   ar
    16     1     2    1
    17     2     3   ar
    18     3     4   ar
    19     4     5   ar
    20     5     6   ar
    21     6     7   ar
    22    19    14   ar
    23     7     2   ar
    24    11    12    1
@<TRIPOS>MOLECULE
*****
 23 24 0 0 0
SMALL
GASTEIGER

@<TRIPOS>ATOM
      1 C         138.7377  141.7107  164.8398 C.3     1  UNL1        0.1895
      2 C         138.6363  140.2281  165.0435 C.ar    1  UNL1        0.0172
      3 C         138.0364  139.6837  166.3059 C.ar    1  UNL1       -0.0008
      4 C         137.9351  138.2011  166.5096 C.ar    1  UNL1       -0.0002
      5 C         138.4336  137.2628  165.4509 C.ar    1  UNL1       -0.0000
      6 C         139.0335  137.8071  164.1883 C.ar    1  UNL1       -0.0002
      7 C         139.1349  139.2897  163.9846 C.ar    1  UNL1       -0.0008
      8 C         137.6964  142.4301  164.0346 C.3     1  UNL1        0.0653
      9 C         137.6798  143.9295  163.9984 C.3     1  UNL1        0.0727
     10 C         139.1363  145.2548  162.3036 C.3     1  UNL1        0.0859
     11 N         137.8192  144.6497  162.6901 N.3     1  UNL1       -0.2962
     12 H         137.5764  143.9814  161.9587 H       1  UNL1        0.1233
     13 O         139.8803  142.4740  165.4412 O.3     1  UNL1       -0.4747
     14 C         140.6394  141.8985  166.6001 C.ar    1  UNL1        0.1388
     15 C         140.3815  142.4014  167.9895 C.ar    1  UNL1        0.0369
     16 C         141.1406  141.8259  169.1482 C.ar    1  UNL1        0.0070
     17 C         142.1574  140.7476  168.9175 C.ar    1  UNL1        0.0716
     18 C         142.4153  140.2447  167.5280 C.ar    1  UNL1        0.0070
     19 C         141.6562  140.8202  166.3693 C.ar    1  UNL1        0.0369
     20 C         142.9165  140.1721  170.0763 C.3     1  UNL1        0.4186
     21 F         143.6755  139.5966  171.2350 F       1  UNL1       -0.1659
     22 F         143.7817  141.3967  170.1177 F       1  UNL1       -0.1659
     23 F         142.0513  138.9475  170.0348 F       1  UNL1       -0.1659
@<TRIPOS>BOND
     1    10    11    1
     2    11     9    1
     3     9     8    1
     4     8     1    1
     5     1    13    1
     6    13    14    1
     7    14    15   ar
     8    15    16   ar
     9    16    17   ar
    10    17    20    1
    11    20    21    1
    12    20    22    1
    13    20    23    1
    14    17    18   ar
    15    18    19   ar
    16     1     2    1
    17     2     3   ar
    18     3     4   ar
    19     4     5   ar
    20     5     6   ar
    21     6     7   ar
    22    19    14   ar
    23     7     2   ar
    24    11    12    1
