@<TRIPOS>MOLECULE
*****
 20 21 0 0 0
SMALL
GASTEIGER

@<TRIPOS>ATOM
      1 C         141.4336  144.3351  163.8897 C.ar    1  UNL1        0.0283
      2 C         142.6428  145.1534  163.5459 C.ar    1  UNL1        0.0024
      3 C         144.0157  144.5810  163.7400 C.ar    1  UNL1        0.0296
      4 C         144.1794  143.1904  164.2779 C.ar    1  UNL1        0.1432
      5 F         145.5522  142.6180  164.4720 F       1  UNL1       -0.2041
      6 C         142.9702  142.3721  164.6217 C.ar    1  UNL1        0.0668
      7 C         141.5973  142.9445  164.4276 C.ar    1  UNL1        0.1448
      8 C         140.0608  144.9075  163.6956 C.3     1  UNL1        0.0987
      9 C         137.8063  144.3315  164.8513 C.3     1  UNL1        0.0861
     10 N         139.1300  145.0370  164.8647 N.3     1  UNL1       -0.2925
     11 H         139.6361  144.6980  165.6829 H       1  UNL1        0.1236
     12 O         140.3881  142.1262  164.7714 O.3     1  UNL1       -0.4537
     13 C         140.1669  141.6715  166.1836 C.ar    1  UNL1        0.1462
     14 C         139.6176  140.3020  166.4534 C.ar    1  UNL1        0.0384
     15 C         139.3964  139.8474  167.8656 C.ar    1  UNL1        0.0154
     16 C         139.7245  140.7622  169.0081 C.ar    1  UNL1        0.0684
     17 CL        139.5034  140.3076  170.4203 Cl      1  UNL1       -0.0814
     18 C         140.2738  142.1317  168.7384 C.ar    1  UNL1        0.0712
     19 CL        140.6019  143.0466  169.8810 Cl      1  UNL1       -0.0813
     20 C         140.4950  142.5864  167.3262 C.ar    1  UNL1        0.0497
@<TRIPOS>BOND
     1     9    10    1
     2    10     8    1
     3     8     1    1
     4     1     2   ar
     5     2     3   ar
     6     3     4   ar
     7     4     5    1
     8     4     6   ar
     9     6     7   ar
    10     7    12    1
    11    12    13    1
    12    13    14   ar
    13    14    15   ar
    14    15    16   ar
    15    16    17    1
    16    16    18   ar
    17    18    19    1
    18    18    20   ar
    19     7     1   ar
    20    20    13   ar
    21    10    11    1
@<TRIPOS>MOLECULE
*****
 20 21 0 0 0
SMALL
GASTEIGER

@<TRIPOS>ATOM
      1 C         138.7248  142.6515  164.1644 C.ar    1  UNL1        0.0283
      2 C         138.3799  144.0828  163.8777 C.ar    1  UNL1        0.0024
      3 C         139.4670  145.1122  163.7848 C.ar    1  UNL1        0.0296
      4 C         140.8991  144.7101  163.9787 C.ar    1  UNL1        0.1432
      5 F         141.9862  145.7395  163.8858 F       1  UNL1       -0.2041
      6 C         141.2440  143.2788  164.2654 C.ar    1  UNL1        0.0668
      7 C         140.1568  142.2495  164.3583 C.ar    1  UNL1        0.1448
      8 C         137.6377  141.6222  164.2573 C.3     1  UNL1        0.0987
      9 C         137.6670  140.7997  161.7930 C.3     1  UNL1        0.0861
     10 N         136.9025  141.1942  163.0218 N.3     1  UNL1       -0.2925
     11 H         136.3303  140.3912  163.2830 H       1  UNL1        0.1236
     12 O         140.5018  140.8181  164.6450 O.3     1  UNL1       -0.4537
     13 C         140.9017  140.4061  166.0308 C.ar    1  UNL1        0.1462
     14 C         142.2669  139.8364  166.2792 C.ar    1  UNL1        0.0384
     15 C         142.6669  139.4244  167.6649 C.ar    1  UNL1        0.0154
     16 C         141.7017  139.5821  168.8023 C.ar    1  UNL1        0.0684
     17 CL        142.1016  139.1701  170.1880 Cl      1  UNL1       -0.0814
     18 C         140.3365  140.1518  168.5539 C.ar    1  UNL1        0.0712
     19 CL        139.3713  140.3095  169.6912 Cl      1  UNL1       -0.0813
     20 C         139.9365  140.5638  167.1681 C.ar    1  UNL1        0.0497
@<TRIPOS>BOND
     1     9    10    1
     2    10     8    1
     3     8     1    1
     4     1     2   ar
     5     2     3   ar
     6     3     4   ar
     7     4     5    1
     8     4     6   ar
     9     6     7   ar
    10     7    12    1
    11    12    13    1
    12    13    14   ar
    13    14    15   ar
    14    15    16   ar
    15    16    17    1
    16    16    18   ar
    17    18    19    1
    18    18    20   ar
    19     7     1   ar
    20    20    13   ar
    21    10    11    1
@<TRIPOS>MOLECULE
*****
 20 21 0 0 0
SMALL
GASTEIGER

@<TRIPOS>ATOM
      1 C         138.0471  139.8279  162.5764 C.ar    1  UNL1        0.0283
      2 C         137.8341  140.8633  161.5122 C.ar    1  UNL1        0.0024
      3 C         137.8001  142.3178  161.8770 C.ar    1  UNL1        0.0296
      4 C         137.9791  142.7370  163.3060 C.ar    1  UNL1        0.1432
      5 F         137.9451  144.1916  163.6709 F       1  UNL1       -0.2041
      6 C         138.1920  141.7016  164.3702 C.ar    1  UNL1        0.0668
      7 C         138.2260  140.2471  164.0054 C.ar    1  UNL1        0.1448
      8 C         138.0811  138.3733  162.2115 C.3     1  UNL1        0.0987
      9 C         140.6220  137.8471  162.3400 C.3     1  UNL1        0.0861
     10 N         139.2051  137.5052  162.6940 N.3     1  UNL1       -0.2925
     11 H         139.1509  137.4923  163.7125 H       1  UNL1        0.1236
     12 O         138.4390  139.2117  165.0697 O.3     1  UNL1       -0.4537
     13 C         139.4828  139.4251  166.1255 C.ar    1  UNL1        0.1462
     14 C         140.9366  139.2917  165.7808 C.ar    1  UNL1        0.0384
     15 C         141.9804  139.5052  166.8366 C.ar    1  UNL1        0.0154
     16 C         141.5706  139.8520  168.2372 C.ar    1  UNL1        0.0684
     17 CL        142.6144  140.0654  169.2931 Cl      1  UNL1       -0.0814
     18 C         140.1169  139.9854  168.5820 C.ar    1  UNL1        0.0712
     19 CL        139.7070  140.3322  169.9826 Cl      1  UNL1       -0.0813
     20 C         139.0730  139.7719  167.5261 C.ar    1  UNL1        0.0497
@<TRIPOS>BOND
     1     9    10    1
     2    10     8    1
     3     8     1    1
     4     1     2   ar
     5     2     3   ar
     6     3     4   ar
     7     4     5    1
     8     4     6   ar
     9     6     7   ar
    10     7    12    1
    11    12    13    1
    12    13    14   ar
    13    14    15   ar
    14    15    16   ar
    15    16    17    1
    16    16    18   ar
    17    18    19    1
    18    18    20   ar
    19     7     1   ar
    20    20    13   ar
    21    10    11    1
@<TRIPOS>MOLECULE
*****
 20 21 0 0 0
SMALL
GASTEIGER

@<TRIPOS>ATOM
      1 C         138.5077  141.6208  164.3688 C.ar    1  UNL1        0.0283
      2 C         137.4980  142.4429  163.6242 C.ar    1  UNL1        0.0024
      3 C         137.8388  143.8383  163.1919 C.ar    1  UNL1        0.0296
      4 C         139.1893  144.4115  163.5043 C.ar    1  UNL1        0.1432
      5 F         139.5301  145.8068  163.0720 F       1  UNL1       -0.2041
      6 C         140.1990  143.5893  164.2489 C.ar    1  UNL1        0.0668
      7 C         139.8582  142.1939  164.6812 C.ar    1  UNL1        0.1448
      8 C         138.1669  140.2254  164.8011 C.3     1  UNL1        0.0987
      9 C         137.8487  138.5860  166.7913 C.3     1  UNL1        0.0861
     10 N         138.5673  139.7436  166.1639 N.3     1  UNL1       -0.2925
     11 H         139.5518  139.4829  166.1066 H       1  UNL1        0.1236
     12 O         140.8679  141.3718  165.4258 O.3     1  UNL1       -0.4537
     13 C         141.3920  141.8455  166.7491 C.ar    1  UNL1        0.1462
     14 C         142.8602  141.7663  167.0462 C.ar    1  UNL1        0.0384
     15 C         143.3842  142.2400  168.3694 C.ar    1  UNL1        0.0154
     16 C         142.4401  142.7929  169.3956 C.ar    1  UNL1        0.0684
     17 CL        142.9641  143.2666  170.7188 Cl      1  UNL1       -0.0814
     18 C         140.9719  142.8721  169.0985 C.ar    1  UNL1        0.0712
     19 CL        140.0278  143.4249  170.1247 Cl      1  UNL1       -0.0813
     20 C         140.4478  142.3983  167.7752 C.ar    1  UNL1        0.0497
@<TRIPOS>BOND
     1     9    10    1
     2    10     8    1
     3     8     1    1
     4     1     2   ar
     5     2     3   ar
     6     3     4   ar
     7     4     5    1
     8     4     6   ar
     9     6     7   ar
    10     7    12    1
    11    12    13    1
    12    13    14   ar
    13    14    15   ar
    14    15    16   ar
    15    16    17    1
    16    16    18   ar
    17    18    19    1
    18    18    20   ar
    19     7     1   ar
    20    20    13   ar
    21    10    11    1
@<TRIPOS>MOLECULE
*****
 20 21 0 0 0
SMALL
GASTEIGER

@<TRIPOS>ATOM
      1 C         140.2803  139.1243  164.5147 C.ar    1  UNL1        0.0283
      2 C         139.6194  137.7801  164.4368 C.ar    1  UNL1        0.0024
      3 C         138.5381  137.4183  165.4115 C.ar    1  UNL1        0.0296
      4 C         138.1176  138.4008  166.4640 C.ar    1  UNL1        0.1432
      5 F         137.0363  138.0391  167.4386 F       1  UNL1       -0.2041
      6 C         138.7785  139.7451  166.5418 C.ar    1  UNL1        0.0668
      7 C         139.8599  140.1069  165.5672 C.ar    1  UNL1        0.1448
      8 C         141.3616  139.4861  163.5401 C.3     1  UNL1        0.0987
      9 C         143.7193  139.0110  164.5227 C.3     1  UNL1        0.0861
     10 N         142.6854  139.9844  164.0394 N.3     1  UNL1       -0.2925
     11 H         143.1098  140.5094  163.2748 H       1  UNL1        0.1236
     12 O         140.5207  141.4512  165.6452 O.3     1  UNL1       -0.4537
     13 C         141.1477  141.9054  166.9299 C.ar    1  UNL1        0.1462
     14 C         142.5391  141.4685  167.2810 C.ar    1  UNL1        0.0384
     15 C         143.1661  141.9226  168.5658 C.ar    1  UNL1        0.0154
     16 C         142.4017  142.8137  169.4994 C.ar    1  UNL1        0.0684
     17 CL        143.0287  143.2679  170.7842 Cl      1  UNL1       -0.0814
     18 C         141.0104  143.2506  169.1484 C.ar    1  UNL1        0.0712
     19 CL        140.2460  144.1417  170.0821 Cl      1  UNL1       -0.0813
     20 C         140.3833  142.7964  167.8636 C.ar    1  UNL1        0.0497
@<TRIPOS>BOND
     1     9    10    1
     2    10     8    1
     3     8     1    1
     4     1     2   ar
     5     2     3   ar
     6     3     4   ar
     7     4     5    1
     8     4     6   ar
     9     6     7   ar
    10     7    12    1
    11    12    13    1
    12    13    14   ar
    13    14    15   ar
    14    15    16   ar
    15    16    17    1
    16    16    18   ar
    17    18    19    1
    18    18    20   ar
    19     7     1   ar
    20    20    13   ar
    21    10    11    1
@<TRIPOS>MOLECULE
*****
 20 21 0 0 0
SMALL
GASTEIGER

@<TRIPOS>ATOM
      1 C         140.4046  140.5282  167.4365 C.ar    1  UNL1        0.0283
      2 C         139.5570  140.0422  168.5746 C.ar    1  UNL1        0.0024
      3 C         139.3102  140.9298  169.7583 C.ar    1  UNL1        0.0296
      4 C         139.9110  142.3035  169.8040 C.ar    1  UNL1        0.1432
      5 F         139.6641  143.1911  170.9877 F       1  UNL1       -0.2041
      6 C         140.7586  142.7895  168.6658 C.ar    1  UNL1        0.0668
      7 C         141.0054  141.9018  167.4821 C.ar    1  UNL1        0.1448
      8 C         140.6514  139.6406  166.2528 C.3     1  UNL1        0.0987
      9 C         143.0972  138.8389  166.6072 C.3     1  UNL1        0.0861
     10 N         142.0459  139.4549  165.7324 N.3     1  UNL1       -0.2925
     11 H         141.9743  138.8686  164.9008 H       1  UNL1        0.1236
     12 O         141.8530  142.3879  166.3440 O.3     1  UNL1       -0.4537
     13 C         141.2540  143.2630  165.2831 C.ar    1  UNL1        0.1462
     14 C         142.1434  144.0898  164.4025 C.ar    1  UNL1        0.0384
     15 C         141.5444  144.9648  163.3416 C.ar    1  UNL1        0.0154
     16 C         140.0561  145.0131  163.1613 C.ar    1  UNL1        0.0684
     17 CL        139.4571  145.8882  162.1005 Cl      1  UNL1       -0.0814
     18 C         139.1667  144.1864  164.0419 C.ar    1  UNL1        0.0712
     19 CL        137.6784  144.2347  163.8616 Cl      1  UNL1       -0.0813
     20 C         139.7657  143.3113  165.1028 C.ar    1  UNL1        0.0497
@<TRIPOS>BOND
     1     9    10    1
     2    10     8    1
     3     8     1    1
     4     1     2   ar
     5     2     3   ar
     6     3     4   ar
     7     4     5    1
     8     4     6   ar
     9     6     7   ar
    10     7    12    1
    11    12    13    1
    12    13    14   ar
    13    14    15   ar
    14    15    16   ar
    15    16    17    1
    16    16    18   ar
    17    18    19    1
    18    18    20   ar
    19     7     1   ar
    20    20    13   ar
    21    10    11    1
@<TRIPOS>MOLECULE
*****
 20 21 0 0 0
SMALL
GASTEIGER

@<TRIPOS>ATOM
      1 C         139.5977  140.5108  167.8234 C.ar    1  UNL1        0.0283
      2 C         139.3644  140.5836  169.3033 C.ar    1  UNL1        0.0024
      3 C         139.7646  141.8116  170.0661 C.ar    1  UNL1        0.0296
      4 C         140.3981  142.9668  169.3490 C.ar    1  UNL1        0.1432
      5 F         140.7983  144.1948  170.1118 F       1  UNL1       -0.2041
      6 C         140.6314  142.8939  167.8691 C.ar    1  UNL1        0.0668
      7 C         140.2312  141.6659  167.1063 C.ar    1  UNL1        0.1448
      8 C         139.1975  139.2828  167.0606 C.3     1  UNL1        0.0987
      9 C         138.7210  138.6345  164.5903 C.3     1  UNL1        0.0861
     10 N         138.3592  139.4086  165.8231 N.3     1  UNL1       -0.2925
     11 H         137.4123  139.1288  166.0792 H       1  UNL1        0.1236
     12 O         140.4645  141.5931  165.6263 O.3     1  UNL1       -0.4537
     13 C         141.8617  141.6491  165.0836 C.ar    1  UNL1        0.1462
     14 C         142.4047  142.9381  164.5416 C.ar    1  UNL1        0.0384
     15 C         143.8020  142.9942  163.9990 C.ar    1  UNL1        0.0154
     16 C         144.6563  141.7613  163.9983 C.ar    1  UNL1        0.0684
     17 CL        146.0536  141.8173  163.4557 Cl      1  UNL1       -0.0814
     18 C         144.1134  140.4723  164.5403 C.ar    1  UNL1        0.0712
     19 CL        144.9678  139.2394  164.5397 Cl      1  UNL1       -0.0813
     20 C         142.7161  140.4162  165.0830 C.ar    1  UNL1        0.0497
@<TRIPOS>BOND
     1     9    10    1
     2    10     8    1
     3     8     1    1
     4     1     2   ar
     5     2     3   ar
     6     3     4   ar
     7     4     5    1
     8     4     6   ar
     9     6     7   ar
    10     7    12    1
    11    12    13    1
    12    13    14   ar
    13    14    15   ar
    14    15    16   ar
    15    16    17    1
    16    16    18   ar
    17    18    19    1
    18    18    20   ar
    19     7     1   ar
    20    20    13   ar
    21    10    11    1
@<TRIPOS>MOLECULE
*****
 20 21 0 0 0
SMALL
GASTEIGER

@<TRIPOS>ATOM
      1 C         138.6898  139.0136  165.8864 C.ar    1  UNL1        0.0283
      2 C         138.7435  137.6289  165.3123 C.ar    1  UNL1        0.0024
      3 C         139.0582  137.4311  163.8591 C.ar    1  UNL1        0.0296
      4 C         139.3192  138.6181  162.9799 C.ar    1  UNL1        0.1432
      5 F         139.6339  138.4203  161.5267 F       1  UNL1       -0.2041
      6 C         139.2655  140.0028  163.5540 C.ar    1  UNL1        0.0668
      7 C         138.9508  140.2005  165.0072 C.ar    1  UNL1        0.1448
      8 C         138.3751  139.2113  167.3396 C.3     1  UNL1        0.0987
      9 C         138.9997  140.2869  169.6206 C.3     1  UNL1        0.0861
     10 N         139.3989  139.8177  168.2529 N.3     1  UNL1       -0.2925
     11 H         140.1288  139.1172  168.3833 H       1  UNL1        0.1236
     12 O         138.8971  141.5854  165.5813 O.3     1  UNL1       -0.4537
     13 C         139.0874  142.7754  164.6882 C.ar    1  UNL1        0.1462
     14 C         137.9424  143.2853  163.8641 C.ar    1  UNL1        0.0384
     15 C         138.1327  144.4753  162.9710 C.ar    1  UNL1        0.0154
     16 C         139.4678  145.1554  162.9020 C.ar    1  UNL1        0.0684
     17 CL        139.6581  146.3454  162.0089 Cl      1  UNL1       -0.0814
     18 C         140.6128  144.6456  163.7261 C.ar    1  UNL1        0.0712
     19 CL        141.9479  145.3257  163.6571 Cl      1  UNL1       -0.0813
     20 C         140.4226  143.4555  164.6192 C.ar    1  UNL1        0.0497
@<TRIPOS>BOND
     1     9    10    1
     2    10     8    1
     3     8     1    1
     4     1     2   ar
     5     2     3   ar
     6     3     4   ar
     7     4     5    1
     8     4     6   ar
     9     6     7   ar
    10     7    12    1
    11    12    13    1
    12    13    14   ar
    13    14    15   ar
    14    15    16   ar
    15    16    17    1
    16    16    18   ar
    17    18    19    1
    18    18    20   ar
    19     7     1   ar
    20    20    13   ar
    21    10    11    1
@<TRIPOS>MOLECULE
*****
 20 21 0 0 0
SMALL
GASTEIGER

@<TRIPOS>ATOM
      1 C         138.3203  141.9386  162.6654 C.ar    1  UNL1        0.0283
      2 C         138.2163  143.3497  162.1675 C.ar    1  UNL1        0.0024
      3 C         138.2725  144.4931  163.1368 C.ar    1  UNL1        0.0296
      4 C         138.4328  144.2253  164.6040 C.ar    1  UNL1        0.1432
      5 F         138.4890  145.3687  165.5733 F       1  UNL1       -0.2041
      6 C         138.5368  142.8142  165.1018 C.ar    1  UNL1        0.0668
      7 C         138.4806  141.6709  164.1325 C.ar    1  UNL1        0.1448
      8 C         138.2641  140.7952  161.6961 C.3     1  UNL1        0.0987
      9 C         137.9039  138.2235  161.7756 C.3     1  UNL1        0.0861
     10 N         137.3823  139.6152  161.9786 N.3     1  UNL1       -0.2925
     11 H         137.1017  139.6847  162.9567 H       1  UNL1        0.1236
     12 O         138.5847  140.2597  164.6304 O.3     1  UNL1       -0.4537
     13 C         139.9122  139.7141  165.0663 C.ar    1  UNL1        0.1462
     14 C         140.6951  138.8232  164.1479 C.ar    1  UNL1        0.0384
     15 C         142.0226  138.2776  164.5837 C.ar    1  UNL1        0.0154
     16 C         142.5674  138.6230  165.9379 C.ar    1  UNL1        0.0684
     17 CL        143.8949  138.0775  166.3737 Cl      1  UNL1       -0.0814
     18 C         141.7846  139.5139  166.8563 C.ar    1  UNL1        0.0712
     19 CL        142.3294  139.8593  168.2105 Cl      1  UNL1       -0.0813
     20 C         140.4570  140.0595  166.4205 C.ar    1  UNL1        0.0497
@<TRIPOS>BOND
     1     9    10    1
     2    10     8    1
     3     8     1    1
     4     1     2   ar
     5     2     3   ar
     6     3     4   ar
     7     4     5    1
     8     4     6   ar
     9     6     7   ar
    10     7    12    1
    11    12    13    1
    12    13    14   ar
    13    14    15   ar
    14    15    16   ar
    15    16    17    1
    16    16    18   ar
    17    18    19    1
    18    18    20   ar
    19     7     1   ar
    20    20    13   ar
    21    10    11    1
