@<TRIPOS>MOLECULE
*****
 35 38 0 0 0
SMALL
GASTEIGER

@<TRIPOS>ATOM
      1 C         138.6346  138.9253  165.4500 C.ar    1  UNL1        0.0536
      2 C         139.4257  137.7854  164.8800 C.ar    1  UNL1        0.0042
      3 C         139.5856  137.6523  163.3945 C.ar    1  UNL1       -0.0025
      4 C         138.9545  138.6590  162.4790 C.ar    1  UNL1       -0.0026
      5 C         138.1635  139.7989  163.0489 C.ar    1  UNL1       -0.0025
      6 C         138.0035  139.9321  164.5344 C.ar    1  UNL1        0.0042
      7 C         140.6578  142.3104  169.1510 C.3     1  UNL1        0.1025
      8 C         140.8178  142.1772  167.6656 C.3     1  UNL1        0.0327
      9 C         140.0901  141.0932  166.9270 C.3     1  UNL1        0.0943
     10 N         139.2024  140.1425  167.6740 N.am    1  UNL1       -0.2761
     11 C         138.4746  139.0585  166.9354 C.2     1  UNL1        0.2490
     12 O         137.5869  138.1077  167.6823 O.2     1  UNL1       -0.2699
     13 C         139.0424  140.2756  169.1594 C.3     1  UNL1        0.0943
     14 C         139.7701  141.3596  169.8979 C.3     1  UNL1        0.0327
     15 C         141.3856  143.3943  169.8895 C.2     1  UNL1        0.3167
     16 O         140.6515  144.6271  170.3269 O.2     1  UNL1       -0.2501
     17 C         143.5978  142.0464  169.6917 C.3     1  UNL1        0.2556
     18 O         142.8475  143.2455  170.1907 O.3     1  UNL1       -0.4444
     19 C         139.1145  138.5258  160.9935 C.3     1  UNL1        0.1166
     20 N         138.4778  139.5288  160.0777 N.am    1  UNL1       -0.2969
     21 C         139.2343  140.0465  158.8903 C.2     1  UNL1        0.2461
     22 O         140.6274  139.5611  158.6188 O.2     1  UNL1       -0.2701
     23 H         137.5635  139.8473  160.2559 H       1  UNL1        0.1501
     24 C         138.5976  141.0495  157.9745 C.ar    1  UNL1        0.0540
     25 C         137.2645  140.7569  157.3524 C.ar    1  UNL1        0.0061
     26 C         136.6279  141.7598  156.4366 C.ar    1  UNL1        0.0198
     27 C         137.3244  143.0554  156.1429 C.ar    1  UNL1        0.0892
     28 N         136.9453  144.2272  155.2864 N.ar    1  UNL1       -0.2245
     29 C         138.0442  145.2439  155.3793 C.ar    1  UNL1        0.1567
     30 N         138.0788  146.5710  154.6809 N.pl3   1  UNL1       -0.3375
     31 S         139.1024  144.7006  156.2930 S.2     1  UNL1       -0.0520
     32 C         138.6576  143.3480  156.7650 C.ar    1  UNL1        0.0498
     33 C         139.2942  142.3450  157.6808 C.ar    1  UNL1        0.0126
     34 H         137.3324  146.8402  154.0982 H       1  UNL1        0.1442
     35 H         138.8480  147.1728  154.8054 H       1  UNL1        0.1442
@<TRIPOS>BOND
     1    17    18    1
     2    18    15    1
     3    15    16    2
     4    15     7    1
     5     7     8    1
     6     8     9    1
     7     9    10    1
     8    10    11   am
     9    11    12    2
    10    11     1    1
    11     1     2   ar
    12     2     3   ar
    13     3     4   ar
    14     4    19    1
    15    19    20    1
    16    20    21   am
    17    21    22    2
    18    21    24    1
    19    24    25   ar
    20    25    26   ar
    21    26    27   ar
    22    27    28   ar
    23    28    29   ar
    24    29    30    1
    25    29    31   ar
    26    31    32   ar
    27    32    33   ar
    28     4     5   ar
    29     5     6   ar
    30    10    13    1
    31    13    14    1
    32    14     7    1
    33     6     1   ar
    34    33    24   ar
    35    32    27   ar
    36    20    23    1
    37    30    34    1
    38    30    35    1
@<TRIPOS>MOLECULE
*****
 35 38 0 0 0
SMALL
GASTEIGER

@<TRIPOS>ATOM
      1 C         138.5060  138.9102  165.5351 C.ar    1  UNL1        0.0536
      2 C         138.0406  140.0188  164.6382 C.ar    1  UNL1        0.0042
      3 C         138.1910  139.8935  163.1510 C.ar    1  UNL1       -0.0025
      4 C         138.8067  138.6597  162.5607 C.ar    1  UNL1       -0.0026
      5 C         139.2721  137.5511  163.4575 C.ar    1  UNL1       -0.0025
      6 C         139.1217  137.6763  164.9447 C.ar    1  UNL1        0.0042
      7 C         140.5870  142.2483  169.2467 C.3     1  UNL1        0.1025
      8 C         140.7373  142.1231  167.7596 C.3     1  UNL1        0.0327
      9 C         139.9936  141.0521  167.0181 C.3     1  UNL1        0.0943
     10 N         139.0994  140.1063  167.7637 N.am    1  UNL1       -0.2761
     11 C         138.3557  139.0354  167.0222 C.2     1  UNL1        0.2490
     12 O         137.4616  138.0896  167.7679 O.2     1  UNL1       -0.2699
     13 C         138.9491  140.2315  169.2509 C.3     1  UNL1        0.0943
     14 C         139.6929  141.3025  169.9924 C.3     1  UNL1        0.0327
     15 C         141.3308  143.3192  169.9882 C.2     1  UNL1        0.3167
     16 O         140.6751  144.6422  170.2522 O.2     1  UNL1       -0.2501
     17 C         143.5981  142.0727  169.7532 C.3     1  UNL1        0.2556
     18 O         142.7302  143.0672  170.4657 O.3     1  UNL1       -0.4444
     19 C         138.9570  138.5345  161.0735 C.3     1  UNL1        0.1166
     20 N         140.2484  138.9206  160.4151 N.am    1  UNL1       -0.2969
     21 C         140.2909  139.1708  158.9367 C.2     1  UNL1        0.2461
     22 O         139.0422  139.0350  158.1168 O.2     1  UNL1       -0.2701
     23 H         141.0679  139.0097  160.9532 H       1  UNL1        0.1501
     24 C         141.5823  139.5569  158.2783 C.ar    1  UNL1        0.0540
     25 C         142.1330  138.7221  157.1603 C.ar    1  UNL1        0.0061
     26 C         143.4243  139.1082  156.5019 C.ar    1  UNL1        0.0198
     27 C         144.1648  140.3290  156.9615 C.ar    1  UNL1        0.0892
     28 N         145.4507  140.9534  156.5068 N.ar    1  UNL1       -0.2245
     29 C         145.6947  142.1740  157.3437 C.ar    1  UNL1        0.1567
     30 N         146.8678  143.1018  157.2289 N.pl3   1  UNL1       -0.3375
     31 S         144.5596  142.3040  158.3157 S.2     1  UNL1       -0.0520
     32 C         143.6141  141.1638  158.0794 C.ar    1  UNL1        0.0498
     33 C         142.3228  140.7777  158.7378 C.ar    1  UNL1        0.0126
     34 H         147.5658  142.9318  156.5558 H       1  UNL1        0.1442
     35 H         146.9397  143.8807  157.8267 H       1  UNL1        0.1442
@<TRIPOS>BOND
     1    17    18    1
     2    18    15    1
     3    15    16    2
     4    15     7    1
     5     7     8    1
     6     8     9    1
     7     9    10    1
     8    10    11   am
     9    11    12    2
    10    11     1    1
    11     1     2   ar
    12     2     3   ar
    13     3     4   ar
    14     4    19    1
    15    19    20    1
    16    20    21   am
    17    21    22    2
    18    21    24    1
    19    24    25   ar
    20    25    26   ar
    21    26    27   ar
    22    27    28   ar
    23    28    29   ar
    24    29    30    1
    25    29    31   ar
    26    31    32   ar
    27    32    33   ar
    28     4     5   ar
    29     5     6   ar
    30    10    13    1
    31    13    14    1
    32    14     7    1
    33     6     1   ar
    34    33    24   ar
    35    32    27   ar
    36    20    23    1
    37    30    34    1
    38    30    35    1
@<TRIPOS>MOLECULE
*****
 35 38 0 0 0
SMALL
GASTEIGER

@<TRIPOS>ATOM
      1 C         138.4914  138.7536  165.6879 C.ar    1  UNL1        0.0536
      2 C         138.0093  139.7819  164.7080 C.ar    1  UNL1        0.0042
      3 C         138.2155  139.5709  163.2372 C.ar    1  UNL1       -0.0025
      4 C         138.9037  138.3318  162.7465 C.ar    1  UNL1       -0.0026
      5 C         139.3857  137.3035  163.7264 C.ar    1  UNL1       -0.0025
      6 C         139.1796  137.5144  165.1971 C.ar    1  UNL1        0.0042
      7 C         140.5883  142.1724  169.3163 C.3     1  UNL1        0.1025
      8 C         140.7945  141.9615  167.8456 C.3     1  UNL1        0.0327
      9 C         140.0268  140.8922  167.1264 C.3     1  UNL1        0.0943
     10 N         139.0529  140.0338  167.8778 N.am    1  UNL1       -0.2761
     11 C         138.2852  138.9645  167.1586 C.2     1  UNL1        0.2490
     12 O         137.3113  138.1061  167.9101 O.2     1  UNL1       -0.2699
     13 C         138.8467  140.2447  169.3485 C.3     1  UNL1        0.0943
     14 C         139.6144  141.3140  170.0678 C.3     1  UNL1        0.0327
     15 C         141.3560  143.2416  170.0355 C.2     1  UNL1        0.3167
     16 O         140.7590  144.6070  170.2071 O.2     1  UNL1       -0.2501
     17 C         143.7532  142.2936  169.7122 C.3     1  UNL1        0.2556
     18 O         142.7206  142.9456  170.5832 O.3     1  UNL1       -0.4444
     19 C         139.1099  138.1209  161.2758 C.3     1  UNL1        0.1166
     20 N         139.6547  139.2319  160.4279 N.am    1  UNL1       -0.2969
     21 C         138.7212  140.0946  159.6315 C.2     1  UNL1        0.2461
     22 O         137.2428  139.8464  159.6830 O.2     1  UNL1       -0.2701
     23 H         140.6251  139.3948  160.3941 H       1  UNL1        0.1501
     24 C         139.2661  141.2056  158.7836 C.ar    1  UNL1        0.0540
     25 C         138.9268  141.2707  157.3240 C.ar    1  UNL1        0.0061
     26 C         139.4717  142.3816  156.4762 C.ar    1  UNL1        0.0198
     27 C         140.3559  143.4275  157.0880 C.ar    1  UNL1        0.0892
     28 N         141.0357  144.6320  156.5073 N.ar    1  UNL1       -0.2245
     29 C         141.7952  145.3112  157.6080 C.ar    1  UNL1        0.1567
     30 N         142.6204  146.5565  157.4718 N.pl3   1  UNL1       -0.3375
     31 S         141.5848  144.5266  158.8690 S.2     1  UNL1       -0.0520
     32 C         140.6952  143.3624  158.5476 C.ar    1  UNL1        0.0498
     33 C         140.1503  142.2515  159.3954 C.ar    1  UNL1        0.0126
     34 H         142.6983  147.0022  156.5974 H       1  UNL1        0.1442
     35 H         143.0840  146.9282  158.2568 H       1  UNL1        0.1442
@<TRIPOS>BOND
     1    17    18    1
     2    18    15    1
     3    15    16    2
     4    15     7    1
     5     7     8    1
     6     8     9    1
     7     9    10    1
     8    10    11   am
     9    11    12    2
    10    11     1    1
    11     1     2   ar
    12     2     3   ar
    13     3     4   ar
    14     4    19    1
    15    19    20    1
    16    20    21   am
    17    21    22    2
    18    21    24    1
    19    24    25   ar
    20    25    26   ar
    21    26    27   ar
    22    27    28   ar
    23    28    29   ar
    24    29    30    1
    25    29    31   ar
    26    31    32   ar
    27    32    33   ar
    28     4     5   ar
    29     5     6   ar
    30    10    13    1
    31    13    14    1
    32    14     7    1
    33     6     1   ar
    34    33    24   ar
    35    32    27   ar
    36    20    23    1
    37    30    34    1
    38    30    35    1
@<TRIPOS>MOLECULE
*****
 35 38 0 0 0
SMALL
GASTEIGER

@<TRIPOS>ATOM
      1 C         143.4396  138.7698  164.8107 C.ar    1  UNL1        0.0536
      2 C         144.4676  139.6257  164.1320 C.ar    1  UNL1        0.0042
      3 C         144.4610  139.7637  162.6383 C.ar    1  UNL1       -0.0025
      4 C         143.4263  139.0460  161.8234 C.ar    1  UNL1       -0.0026
      5 C         142.3982  138.1901  162.5020 C.ar    1  UNL1       -0.0025
      6 C         142.4048  138.0520  163.9956 C.ar    1  UNL1        0.0042
      7 C         140.8349  141.2950  168.8217 C.3     1  UNL1        0.1025
      8 C         140.8282  141.4331  167.3282 C.3     1  UNL1        0.0327
      9 C         141.6987  140.5453  166.4890 C.3     1  UNL1        0.0943
     10 N         142.5757  139.5194  167.1434 N.am    1  UNL1       -0.2761
     11 C         143.4462  138.6317  166.3042 C.2     1  UNL1        0.2490
     12 O         144.3232  137.6058  166.9586 O.2     1  UNL1       -0.2699
     13 C         142.5824  139.3813  168.6370 C.3     1  UNL1        0.0943
     14 C         141.7119  140.2691  169.4762 C.3     1  UNL1        0.0327
     15 C         139.9644  142.1827  169.6609 C.2     1  UNL1        0.3167
     16 O         140.1202  143.6727  169.5868 O.2     1  UNL1       -0.2501
     17 C         138.3245  140.2530  170.2410 C.3     1  UNL1        0.2556
     18 O         138.9382  141.5805  170.5742 O.3     1  UNL1       -0.4444
     19 C         143.4197  139.1841  160.3298 C.3     1  UNL1        0.1166
     20 N         143.1996  137.9776  159.4660 N.am    1  UNL1       -0.2969
     21 C         142.5714  138.1289  158.1123 C.2     1  UNL1        0.2461
     22 O         142.1633  139.4866  157.6224 O.2     1  UNL1       -0.2701
     23 H         143.4675  137.0865  159.7875 H       1  UNL1        0.1501
     24 C         142.3514  136.9225  157.2485 C.ar    1  UNL1        0.0540
     25 C         141.2375  136.9124  156.2440 C.ar    1  UNL1        0.0061
     26 C         141.0175  135.7059  155.3802 C.ar    1  UNL1        0.0198
     27 C         141.9114  134.5096  155.5210 C.ar    1  UNL1        0.0892
     28 N         141.9372  133.1871  154.8135 N.ar    1  UNL1       -0.2245
     29 C         143.0670  132.3799  155.3809 C.ar    1  UNL1        0.1567
     30 N         143.4561  130.9927  154.9634 N.pl3   1  UNL1       -0.3375
     31 S         143.7395  133.2035  156.4389 S.2     1  UNL1       -0.0520
     32 C         143.0253  134.5197  156.5255 C.ar    1  UNL1        0.0498
     33 C         143.2453  135.7261  157.3893 C.ar    1  UNL1        0.0126
     34 H         142.9506  130.5317  154.2555 H       1  UNL1        0.1442
     35 H         144.2169  130.5432  155.3974 H       1  UNL1        0.1442
@<TRIPOS>BOND
     1    17    18    1
     2    18    15    1
     3    15    16    2
     4    15     7    1
     5     7     8    1
     6     8     9    1
     7     9    10    1
     8    10    11   am
     9    11    12    2
    10    11     1    1
    11     1     2   ar
    12     2     3   ar
    13     3     4   ar
    14     4    19    1
    15    19    20    1
    16    20    21   am
    17    21    22    2
    18    21    24    1
    19    24    25   ar
    20    25    26   ar
    21    26    27   ar
    22    27    28   ar
    23    28    29   ar
    24    29    30    1
    25    29    31   ar
    26    31    32   ar
    27    32    33   ar
    28     4     5   ar
    29     5     6   ar
    30    10    13    1
    31    13    14    1
    32    14     7    1
    33     6     1   ar
    34    33    24   ar
    35    32    27   ar
    36    20    23    1
    37    30    34    1
    38    30    35    1
@<TRIPOS>MOLECULE
*****
 35 38 0 0 0
SMALL
GASTEIGER

@<TRIPOS>ATOM
      1 C         138.2681  139.9894  160.5558 C.ar    1  UNL1        0.0536
      2 C         137.7958  140.6351  161.8246 C.ar    1  UNL1        0.0042
      3 C         138.0603  139.9752  163.1455 C.ar    1  UNL1       -0.0025
      4 C         138.7970  138.6696  163.1975 C.ar    1  UNL1       -0.0026
      5 C         139.2693  138.0239  161.9286 C.ar    1  UNL1       -0.0025
      6 C         139.0048  138.6837  160.6078 C.ar    1  UNL1        0.0042
      7 C         140.6090  144.0497  157.8569 C.3     1  UNL1        0.1025
      8 C         140.8735  143.3898  159.1777 C.3     1  UNL1        0.0327
      9 C         140.0050  142.2563  159.6371 C.3     1  UNL1        0.0943
     10 N         138.8721  141.7827  158.7756 N.am    1  UNL1       -0.2761
     11 C         138.0037  140.6492  159.2350 C.2     1  UNL1        0.2490
     12 O         136.8708  140.1756  158.3735 O.2     1  UNL1       -0.2699
     13 C         138.6077  142.4425  157.4548 C.3     1  UNL1        0.0943
     14 C         139.4762  143.5760  156.9954 C.3     1  UNL1        0.0327
     15 C         141.4775  145.1832  157.3976 C.2     1  UNL1        0.3167
     16 O         142.2703  145.9730  158.3963 O.2     1  UNL1       -0.2501
     17 C         142.3307  144.6515  155.0019 C.3     1  UNL1        0.2556
     18 O         141.5531  145.5269  155.9395 O.3     1  UNL1       -0.4444
     19 C         139.0614  138.0098  164.5183 C.3     1  UNL1        0.1166
     20 N         139.7185  138.7816  165.6241 N.am    1  UNL1       -0.2969
     21 C         138.9112  139.2370  166.8034 C.2     1  UNL1        0.2461
     22 O         137.4468  138.9207  166.8770 O.2     1  UNL1       -0.2701
     23 H         140.6797  138.9892  165.5758 H       1  UNL1        0.1501
     24 C         139.5683  140.0088  167.9092 C.ar    1  UNL1        0.0540
     25 C         138.8888  140.1382  169.2401 C.ar    1  UNL1        0.0061
     26 C         139.5459  140.9099  170.3458 C.ar    1  UNL1        0.0198
     27 C         140.8825  141.5523  170.1205 C.ar    1  UNL1        0.0892
     28 N         141.7673  142.3688  171.0153 N.ar    1  UNL1       -0.2245
     29 C         142.9937  142.7439  170.2373 C.ar    1  UNL1        0.1567
     30 N         144.1448  143.5604  170.7457 N.pl3   1  UNL1       -0.3375
     31 S         142.8668  142.1593  168.8618 S.2     1  UNL1       -0.0520
     32 C         141.5621  141.4228  168.7896 C.ar    1  UNL1        0.0498
     33 C         140.9050  140.6511  167.6839 C.ar    1  UNL1        0.0126
     34 H         144.1363  143.9019  171.6690 H       1  UNL1        0.1442
     35 H         144.9088  143.7547  170.1560 H       1  UNL1        0.1442
@<TRIPOS>BOND
     1    17    18    1
     2    18    15    1
     3    15    16    2
     4    15     7    1
     5     7     8    1
     6     8     9    1
     7     9    10    1
     8    10    11   am
     9    11    12    2
    10    11     1    1
    11     1     2   ar
    12     2     3   ar
    13     3     4   ar
    14     4    19    1
    15    19    20    1
    16    20    21   am
    17    21    22    2
    18    21    24    1
    19    24    25   ar
    20    25    26   ar
    21    26    27   ar
    22    27    28   ar
    23    28    29   ar
    24    29    30    1
    25    29    31   ar
    26    31    32   ar
    27    32    33   ar
    28     4     5   ar
    29     5     6   ar
    30    10    13    1
    31    13    14    1
    32    14     7    1
    33     6     1   ar
    34    33    24   ar
    35    32    27   ar
    36    20    23    1
    37    30    34    1
    38    30    35    1
@<TRIPOS>MOLECULE
*****
 35 38 0 0 0
SMALL
GASTEIGER

@<TRIPOS>ATOM
      1 C         141.9878  138.9068  164.0010 C.ar    1  UNL1        0.0536
      2 C         142.0308  140.0788  163.0658 C.ar    1  UNL1        0.0042
      3 C         141.3759  139.9882  161.7193 C.ar    1  UNL1       -0.0025
      4 C         140.6781  138.7258  161.3080 C.ar    1  UNL1       -0.0026
      5 C         140.6351  137.5538  162.2432 C.ar    1  UNL1       -0.0025
      6 C         141.2899  137.6443  163.5897 C.ar    1  UNL1        0.0042
      7 C         140.2075  140.1143  168.9632 C.3     1  UNL1        0.1025
      8 C         139.5527  140.0238  167.6167 C.3     1  UNL1        0.0327
      9 C         140.3644  139.6514  166.4115 C.3     1  UNL1        0.0943
     10 N         141.8309  139.3696  166.5527 N.am    1  UNL1       -0.2761
     11 C         142.6426  138.9973  165.3475 C.2     1  UNL1        0.2490
     12 O         144.1090  138.7154  165.4887 O.2     1  UNL1       -0.2699
     13 C         142.4857  139.4601  167.8992 C.3     1  UNL1        0.0943
     14 C         141.6740  139.8324  169.1044 C.3     1  UNL1        0.0327
     15 C         139.3959  140.4866  170.1684 C.2     1  UNL1        0.3167
     16 O         138.1426  139.7287  170.4919 O.2     1  UNL1       -0.2501
     17 C         139.9271  143.0084  170.4973 C.3     1  UNL1        0.2556
     18 O         139.8375  141.6168  171.0501 O.3     1  UNL1       -0.4444
     19 C         140.0233  138.6353  159.9616 C.3     1  UNL1        0.1166
     20 N         139.9438  139.8487  159.0832 N.am    1  UNL1       -0.2969
     21 C         138.6136  140.4778  158.7920 C.2     1  UNL1        0.2461
     22 O         137.3630  139.8936  159.3791 O.2     1  UNL1       -0.2701
     23 H         140.7646  140.2321  158.6978 H       1  UNL1        0.1501
     24 C         138.5340  141.6912  157.9136 C.ar    1  UNL1        0.0540
     25 C         137.4559  141.7966  156.8761 C.ar    1  UNL1        0.0061
     26 C         137.3763  143.0099  155.9978 C.ar    1  UNL1        0.0198
     27 C         138.3750  144.1178  156.1570 C.ar    1  UNL1        0.0892
     28 N         138.5464  145.4250  155.4414 N.ar    1  UNL1       -0.2245
     29 C         139.7305  146.1274  156.0367 C.ar    1  UNL1        0.1567
     30 N         140.2612  147.4676  155.6215 N.pl3   1  UNL1       -0.3375
     31 S         140.2909  145.2544  157.1202 S.2     1  UNL1       -0.0520
     32 C         139.4531  144.0124  157.1945 C.ar    1  UNL1        0.0498
     33 C         139.5326  142.7991  158.0728 C.ar    1  UNL1        0.0126
     34 H         139.8225  147.9674  154.8955 H       1  UNL1        0.1442
     35 H         141.0482  147.8475  156.0750 H       1  UNL1        0.1442
@<TRIPOS>BOND
     1    17    18    1
     2    18    15    1
     3    15    16    2
     4    15     7    1
     5     7     8    1
     6     8     9    1
     7     9    10    1
     8    10    11   am
     9    11    12    2
    10    11     1    1
    11     1     2   ar
    12     2     3   ar
    13     3     4   ar
    14     4    19    1
    15    19    20    1
    16    20    21   am
    17    21    22    2
    18    21    24    1
    19    24    25   ar
    20    25    26   ar
    21    26    27   ar
    22    27    28   ar
    23    28    29   ar
    24    29    30    1
    25    29    31   ar
    26    31    32   ar
    27    32    33   ar
    28     4     5   ar
    29     5     6   ar
    30    10    13    1
    31    13    14    1
    32    14     7    1
    33     6     1   ar
    34    33    24   ar
    35    32    27   ar
    36    20    23    1
    37    30    34    1
    38    30    35    1
@<TRIPOS>MOLECULE
*****
 35 38 0 0 0
SMALL
GASTEIGER

@<TRIPOS>ATOM
      1 C         143.6107  139.4190  162.1321 C.ar    1  UNL1        0.0536
      2 C         143.6581  140.6064  161.2168 C.ar    1  UNL1        0.0042
      3 C         143.4384  140.4271  159.7438 C.ar    1  UNL1       -0.0025
      4 C         143.1713  139.0605  159.1862 C.ar    1  UNL1       -0.0026
      5 C         143.1240  137.8731  160.1015 C.ar    1  UNL1       -0.0025
      6 C         143.3437  138.0523  161.5744 C.ar    1  UNL1        0.0042
      7 C         140.3287  139.5066  166.4298 C.3     1  UNL1        0.1025
      8 C         140.1090  139.3274  164.9569 C.3     1  UNL1        0.0327
      9 C         141.2762  139.3579  164.0153 C.3     1  UNL1        0.0943
     10 N         142.6632  139.5676  164.5466 N.am    1  UNL1       -0.2761
     11 C         143.8304  139.5982  163.6050 C.2     1  UNL1        0.2490
     12 O         145.2174  139.8079  164.1364 O.2     1  UNL1       -0.2699
     13 C         142.8829  139.7468  166.0196 C.3     1  UNL1        0.0943
     14 C         141.7156  139.7163  166.9612 C.3     1  UNL1        0.0327
     15 C         139.1614  139.4761  167.3714 C.2     1  UNL1        0.3167
     16 O         139.3460  139.8669  168.8077 O.2     1  UNL1       -0.2501
     17 C         137.3838  137.6206  166.9875 C.3     1  UNL1        0.2556
     18 O         137.8095  139.0547  166.8767 O.3     1  UNL1       -0.4444
     19 C         142.9517  138.8813  157.7132 C.3     1  UNL1        0.1166
     20 N         143.2397  137.5584  157.0674 N.am    1  UNL1       -0.2969
     21 C         142.1089  136.6718  156.6371 C.2     1  UNL1        0.2461
     22 O         140.6900  137.1081  156.8526 O.2     1  UNL1       -0.2701
     23 H         144.1710  137.2720  156.9260 H       1  UNL1        0.1501
     24 C         142.3969  135.3489  155.9913 C.ar    1  UNL1        0.0540
     25 C         141.6631  134.9463  154.7466 C.ar    1  UNL1        0.0061
     26 C         141.9512  133.6235  154.1008 C.ar    1  UNL1        0.0198
     27 C         142.9731  132.7032  154.6998 C.ar    1  UNL1        0.0892
     28 N         143.4656  131.3470  154.2894 N.ar    1  UNL1       -0.2245
     29 C         144.5038  130.9115  155.2805 C.ar    1  UNL1        0.1567
     30 N         145.2602  129.6164  155.2535 N.pl3   1  UNL1       -0.3375
     31 S         144.6530  131.9984  156.3034 S.2     1  UNL1       -0.0520
     32 C         143.7069  133.1058  155.9445 C.ar    1  UNL1        0.0498
     33 C         143.4188  134.4286  156.5903 C.ar    1  UNL1        0.0126
     34 H         145.0912  128.9625  154.5372 H       1  UNL1        0.1442
     35 H         145.9255  129.4202  155.9522 H       1  UNL1        0.1442
@<TRIPOS>BOND
     1    17    18    1
     2    18    15    1
     3    15    16    2
     4    15     7    1
     5     7     8    1
     6     8     9    1
     7     9    10    1
     8    10    11   am
     9    11    12    2
    10    11     1    1
    11     1     2   ar
    12     2     3   ar
    13     3     4   ar
    14     4    19    1
    15    19    20    1
    16    20    21   am
    17    21    22    2
    18    21    24    1
    19    24    25   ar
    20    25    26   ar
    21    26    27   ar
    22    27    28   ar
    23    28    29   ar
    24    29    30    1
    25    29    31   ar
    26    31    32   ar
    27    32    33   ar
    28     4     5   ar
    29     5     6   ar
    30    10    13    1
    31    13    14    1
    32    14     7    1
    33     6     1   ar
    34    33    24   ar
    35    32    27   ar
    36    20    23    1
    37    30    34    1
    38    30    35    1
@<TRIPOS>MOLECULE
*****
 35 38 0 0 0
SMALL
GASTEIGER

@<TRIPOS>ATOM
      1 C         142.9101  138.4665  164.6631 C.ar    1  UNL1        0.0536
      2 C         141.7259  137.6709  164.1999 C.ar    1  UNL1        0.0042
      3 C         141.3969  137.5977  162.7382 C.ar    1  UNL1       -0.0025
      4 C         142.2520  138.3201  161.7398 C.ar    1  UNL1       -0.0026
      5 C         143.4363  139.1158  162.2031 C.ar    1  UNL1       -0.0025
      6 C         143.7653  139.1890  163.6647 C.ar    1  UNL1        0.0042
      7 C         140.2441  140.2364  169.0231 C.3     1  UNL1        0.1025
      8 C         139.9151  140.1632  167.5615 C.3     1  UNL1        0.0327
      9 C         140.9134  139.5976  166.5954 C.3     1  UNL1        0.0943
     10 N         142.2408  139.1053  167.0909 N.am    1  UNL1       -0.2761
     11 C         143.2392  138.5397  166.1247 C.2     1  UNL1        0.2490
     12 O         144.5666  138.0474  166.6202 O.2     1  UNL1       -0.2699
     13 C         142.5699  139.1785  168.5524 C.3     1  UNL1        0.0943
     14 C         141.5715  139.7440  169.5186 C.3     1  UNL1        0.0327
     15 C         139.2458  140.8020  169.9893 C.2     1  UNL1        0.3167
     16 O         138.0334  140.0041  170.3680 O.2     1  UNL1       -0.2501
     17 C         140.2286  143.2003  169.8099 C.3     1  UNL1        0.2556
     18 O         139.4598  142.1654  170.5767 O.3     1  UNL1       -0.4444
     19 C         141.9230  138.2469  160.2782 C.3     1  UNL1        0.1166
     20 N         140.8504  139.1257  159.7060 N.am    1  UNL1       -0.2969
     21 C         141.0812  139.8431  158.4091 C.2     1  UNL1        0.2461
     22 O         142.3846  139.6819  157.6844 O.2     1  UNL1       -0.2701
     23 H         139.9949  139.2315  160.1816 H       1  UNL1        0.1501
     24 C         140.0085  140.7219  157.8369 C.ar    1  UNL1        0.0540
     25 C         138.5659  140.3408  157.9899 C.ar    1  UNL1        0.0061
     26 C         137.4933  141.2195  157.4176 C.ar    1  UNL1        0.0198
     27 C         137.8635  142.4793  156.6924 C.ar    1  UNL1        0.0892
     28 N         137.0319  143.5358  156.0272 N.ar    1  UNL1       -0.2245
     29 C         137.9607  144.5698  155.4631 C.ar    1  UNL1        0.1567
     30 N         137.5552  145.8045  154.7140 N.pl3   1  UNL1       -0.3375
     31 S         139.3662  144.1523  155.7797 S.2     1  UNL1       -0.0520
     32 C         139.3062  142.8604  156.5394 C.ar    1  UNL1        0.0498
     33 C         140.3787  141.9816  157.1116 C.ar    1  UNL1        0.0126
     34 H         136.6020  145.9931  154.5551 H       1  UNL1        0.1442
     35 H         138.2421  146.4262  154.3812 H       1  UNL1        0.1442
@<TRIPOS>BOND
     1    17    18    1
     2    18    15    1
     3    15    16    2
     4    15     7    1
     5     7     8    1
     6     8     9    1
     7     9    10    1
     8    10    11   am
     9    11    12    2
    10    11     1    1
    11     1     2   ar
    12     2     3   ar
    13     3     4   ar
    14     4    19    1
    15    19    20    1
    16    20    21   am
    17    21    22    2
    18    21    24    1
    19    24    25   ar
    20    25    26   ar
    21    26    27   ar
    22    27    28   ar
    23    28    29   ar
    24    29    30    1
    25    29    31   ar
    26    31    32   ar
    27    32    33   ar
    28     4     5   ar
    29     5     6   ar
    30    10    13    1
    31    13    14    1
    32    14     7    1
    33     6     1   ar
    34    33    24   ar
    35    32    27   ar
    36    20    23    1
    37    30    34    1
    38    30    35    1
@<TRIPOS>MOLECULE
*****
 35 38 0 0 0
SMALL
GASTEIGER

@<TRIPOS>ATOM
      1 C         142.4651  138.9769  160.1075 C.ar    1  UNL1        0.0536
      2 C         141.0366  138.5692  160.3153 C.ar    1  UNL1        0.0042
      3 C         140.5935  138.0417  161.6478 C.ar    1  UNL1       -0.0025
      4 C         141.5789  137.9219  162.7724 C.ar    1  UNL1       -0.0026
      5 C         143.0074  138.3296  162.5645 C.ar    1  UNL1       -0.0025
      6 C         143.4505  138.8571  161.2321 C.ar    1  UNL1        0.0042
      7 C         142.1172  143.7963  157.6780 C.3     1  UNL1        0.1025
      8 C         141.6741  143.2689  159.0105 C.3     1  UNL1        0.0327
      9 C         141.9378  141.8382  159.3761 C.3     1  UNL1        0.0943
     10 N         142.6446  140.9350  158.4094 N.am    1  UNL1       -0.2761
     11 C         142.9083  139.5044  158.7751 C.2     1  UNL1        0.2490
     12 O         143.6151  138.6012  157.8083 O.2     1  UNL1       -0.2699
     13 C         143.0877  141.4625  157.0770 C.3     1  UNL1        0.0943
     14 C         142.8240  142.8931  156.7113 C.3     1  UNL1        0.0327
     15 C         141.8536  145.2270  157.3124 C.2     1  UNL1        0.3167
     16 O         142.5518  146.3306  158.0502 O.2     1  UNL1       -0.2501
     17 C         139.4470  145.1707  156.3351 C.3     1  UNL1        0.2556
     18 O         140.8917  145.5540  156.2089 O.3     1  UNL1       -0.4444
     19 C         141.1357  137.3945  164.1048 C.3     1  UNL1        0.1166
     20 N         141.3284  138.2222  165.3409 N.am    1  UNL1       -0.2969
     21 C         140.2114  139.0860  165.8467 C.2     1  UNL1        0.2461
     22 O         138.9016  139.1222  165.1165 O.2     1  UNL1       -0.2701
     23 H         142.1881  138.1984  165.8202 H       1  UNL1        0.1501
     24 C         140.4041  139.9137  167.0828 C.ar    1  UNL1        0.0540
     25 C         139.3260  139.9684  168.1244 C.ar    1  UNL1        0.0061
     26 C         139.5188  140.7961  169.3604 C.ar    1  UNL1        0.0198
     27 C         140.7895  141.5690  169.5549 C.ar    1  UNL1        0.0892
     28 N         141.2599  142.4648  170.6623 N.ar    1  UNL1       -0.2245
     29 C         142.6287  142.9637  170.3051 C.ar    1  UNL1        0.1567
     30 N         143.4737  143.8878  171.1311 N.pl3   1  UNL1       -0.3375
     31 S         143.0042  142.3762  168.9770 S.2     1  UNL1       -0.0520
     32 C         141.8675  141.5143  168.5134 C.ar    1  UNL1        0.0498
     33 C         141.6748  140.6866  167.2773 C.ar    1  UNL1        0.0126
     34 H         143.1382  144.2222  171.9942 H       1  UNL1        0.1442
     35 H         144.3637  144.1599  170.8101 H       1  UNL1        0.1442
@<TRIPOS>BOND
     1    17    18    1
     2    18    15    1
     3    15    16    2
     4    15     7    1
     5     7     8    1
     6     8     9    1
     7     9    10    1
     8    10    11   am
     9    11    12    2
    10    11     1    1
    11     1     2   ar
    12     2     3   ar
    13     3     4   ar
    14     4    19    1
    15    19    20    1
    16    20    21   am
    17    21    22    2
    18    21    24    1
    19    24    25   ar
    20    25    26   ar
    21    26    27   ar
    22    27    28   ar
    23    28    29   ar
    24    29    30    1
    25    29    31   ar
    26    31    32   ar
    27    32    33   ar
    28     4     5   ar
    29     5     6   ar
    30    10    13    1
    31    13    14    1
    32    14     7    1
    33     6     1   ar
    34    33    24   ar
    35    32    27   ar
    36    20    23    1
    37    30    34    1
    38    30    35    1
