@<TRIPOS>MOLECULE
*****
 40 45 0 0 0
SMALL
GASTEIGER

@<TRIPOS>ATOM
      1 C         138.8543  142.5515  159.3800 C.ar    1  UNL1        0.2203
      2 N         138.1140  141.5310  158.5671 N.ar    1  UNL1       -0.2121
      3 C         137.8897  141.7587  157.1016 C.ar    1  UNL1        0.1035
      4 C         138.4057  143.0068  156.4489 C.ar    1  UNL1        0.0445
      5 C         139.1459  144.0272  157.2617 C.ar    1  UNL1        0.1389
      6 N         139.3703  143.7996  158.7273 N.ar    1  UNL1       -0.2090
      7 C         141.2931  141.0741  160.3125 C.3     1  UNL1        0.0233
      8 C         140.2980  141.5851  161.3118 C.3     1  UNL1        0.0953
      9 C         140.5223  141.3575  162.7773 C.3     1  UNL1        0.1106
     10 N         139.5272  141.8685  163.7766 N.pl3   1  UNL1       -0.3024
     11 C         138.3078  142.6072  163.3104 C.3     1  UNL1        0.1124
     12 C         138.0835  142.8348  161.8449 C.3     1  UNL1        0.1150
     13 N         139.0786  142.3238  160.8456 N.pl3   1  UNL1       -0.2764
     14 C         139.7515  141.6408  165.2422 C.ar    1  UNL1        0.0758
     15 C         140.4047  142.7037  166.0750 C.ar    1  UNL1        0.0181
     16 C         140.6291  142.4761  167.5405 C.ar    1  UNL1        0.0198
     17 C         140.2001  141.1855  168.1734 C.ar    1  UNL1        0.1080
     18 C         139.5469  140.1226  167.3406 C.ar    1  UNL1        0.0492
     19 C         139.3226  140.3503  165.8750 C.ar    1  UNL1        0.1546
     20 F         138.6693  139.2874  165.0423 F       1  UNL1       -0.2028
     21 S         140.4245  140.9579  169.6389 S.O2    1  UNL1        0.0105
     22 C         140.6488  140.7303  171.1044 C.3     1  UNL1        0.1816
     23 O         139.3250  139.9376  169.6487 O.2     1  UNL1       -0.1686
     24 O         141.5240  141.9781  169.6291 O.2     1  UNL1       -0.1686
     25 C         139.6619  145.2753  156.6090 C.2     1  UNL1        0.2637
     26 O         141.0653  145.7345  156.8727 O.2     1  UNL1       -0.2685
     27 N         138.7744  146.0642  155.6925 N.am    1  UNL1       -0.3013
     28 H         137.8533  145.7629  155.5194 H       1  UNL1        0.1497
     29 C         139.2904  147.3124  155.0397 C.3     1  UNL1        0.0719
     30 C         138.9127  148.6566  155.5879 C.3     1  UNL1        0.0203
     31 C         139.8063  148.5605  154.3870 C.3     1  UNL1        0.0018
     32 C         140.3222  149.8085  153.7343 C.3     1  UNL1        0.0024
     33 C         140.6998  148.4644  153.1861 C.3     1  UNL1        0.0018
     34 C         140.1839  147.2163  153.8388 C.3     1  UNL1        0.0203
     35 C         139.7849  150.4173  154.4736 C.3     1  UNL1        0.0285
     36 C         139.0510  151.2488  155.4834 C.3     1  UNL1        0.0884
     37 O         138.6733  152.5930  156.0317 O.3     1  UNL1       -0.3867
     38 C         139.9445  151.1527  154.2825 C.3     1  UNL1        0.0269
     39 C         138.5351  150.0007  156.1361 C.3     1  UNL1        0.0285
     40 H         139.0881  153.2883  155.4973 H       1  UNL1        0.2102
@<TRIPOS>BOND
     1     8     7    1
     2     8     9    1
     3     9    10    1
     4    10    14    1
     5    14    15   ar
     6    15    16   ar
     7    16    17   ar
     8    17    21    1
     9    21    22    1
    10    21    23    2
    11    21    24    2
    12    17    18   ar
    13    18    19   ar
    14    19    20    1
    15    10    11    1
    16    11    12    1
    17    12    13    1
    18    13     1    1
    19     1     2   ar
    20     2     3   ar
    21     3     4   ar
    22     4     5   ar
    23     5    25    1
    24    25    26    2
    25    25    27   am
    26    27    29    1
    27    29    30    1
    28    30    31    1
    29    31    32    1
    30    32    33    1
    31    33    34    1
    32    34    35    1
    33    35    36    1
    34    36    37    1
    35    36    38    1
    36    36    39    1
    37     5     6   ar
    38    13     8    1
    39     6     1   ar
    40    19    14   ar
    41    34    29    1
    42    39    30    1
    43    38    32    1
    44    27    28    1
    45    37    40    1
@<TRIPOS>MOLECULE
*****
 40 45 0 0 0
SMALL
GASTEIGER

@<TRIPOS>ATOM
      1 C         140.5778  139.4384  161.4249 C.ar    1  UNL1        0.2203
      2 N         139.5058  138.4569  161.0539 N.ar    1  UNL1       -0.2121
      3 C         138.4624  138.0702  162.0597 C.ar    1  UNL1        0.1035
      4 C         138.4910  138.6648  163.4365 C.ar    1  UNL1        0.0445
      5 C         139.5630  139.6463  163.8074 C.ar    1  UNL1        0.1389
      6 N         140.6064  140.0330  162.8016 N.ar    1  UNL1       -0.2090
      7 C         143.2221  138.0220  161.3862 C.3     1  UNL1        0.0233
      8 C         142.9433  139.1169  160.3996 C.3     1  UNL1        0.0953
      9 C         143.9866  139.5037  159.3938 C.3     1  UNL1        0.1106
     10 N         143.7079  140.5987  158.4072 N.pl3   1  UNL1       -0.3024
     11 C         142.3858  141.3069  158.4265 C.3     1  UNL1        0.1124
     12 C         141.3424  140.9201  159.4324 C.3     1  UNL1        0.1150
     13 N         141.6212  139.8251  160.4190 N.pl3   1  UNL1       -0.2764
     14 C         144.7513  140.9854  157.4013 C.ar    1  UNL1        0.0758
     15 C         144.8650  140.2301  156.1104 C.ar    1  UNL1        0.0181
     16 C         145.9083  140.6168  155.1045 C.ar    1  UNL1        0.0198
     17 C         146.8381  141.7589  155.3895 C.ar    1  UNL1        0.1080
     18 C         146.7244  142.5143  156.6805 C.ar    1  UNL1        0.0492
     19 C         145.6810  142.1275  157.6864 C.ar    1  UNL1        0.1546
     20 F         145.5673  142.8829  158.9773 F       1  UNL1       -0.2028
     21 S         147.8814  142.1456  154.3837 S.O2    1  UNL1        0.0105
     22 C         148.9248  142.5323  153.3778 C.3     1  UNL1        0.1816
     23 O         148.9587  141.8084  155.3714 O.2     1  UNL1       -0.1686
     24 O         146.8041  142.4828  153.3959 O.2     1  UNL1       -0.1686
     25 C         139.5916  140.2409  165.1843 C.2     1  UNL1        0.2637
     26 O         138.8517  141.5149  165.4665 O.2     1  UNL1       -0.2685
     27 N         140.3600  139.5617  166.2788 N.am    1  UNL1       -0.3013
     28 H         140.8457  138.7256  166.0936 H       1  UNL1        0.1497
     29 C         140.3886  140.1563  167.6556 C.3     1  UNL1        0.0719
     30 C         141.5821  140.9446  168.1075 C.3     1  UNL1        0.0203
     31 C         140.4172  140.7510  169.0324 C.3     1  UNL1        0.0018
     32 C         140.4459  141.3457  170.4092 C.3     1  UNL1        0.0024
     33 C         139.2523  140.5574  169.9573 C.3     1  UNL1        0.0018
     34 C         139.2237  139.9628  168.5805 C.3     1  UNL1        0.0203
     35 C         141.4427  141.7606  170.2093 C.3     1  UNL1        0.0285
     36 C         142.8043  142.3275  169.9361 C.3     1  UNL1        0.0884
     37 O         143.9978  143.1157  170.3880 O.3     1  UNL1       -0.3867
     38 C         141.6394  142.1339  170.8610 C.3     1  UNL1        0.0269
     39 C         142.7757  141.7328  168.5594 C.3     1  UNL1        0.0285
     40 H         143.8551  143.4268  171.2956 H       1  UNL1        0.2102
@<TRIPOS>BOND
     1     8     7    1
     2     8     9    1
     3     9    10    1
     4    10    14    1
     5    14    15   ar
     6    15    16   ar
     7    16    17   ar
     8    17    21    1
     9    21    22    1
    10    21    23    2
    11    21    24    2
    12    17    18   ar
    13    18    19   ar
    14    19    20    1
    15    10    11    1
    16    11    12    1
    17    12    13    1
    18    13     1    1
    19     1     2   ar
    20     2     3   ar
    21     3     4   ar
    22     4     5   ar
    23     5    25    1
    24    25    26    2
    25    25    27   am
    26    27    29    1
    27    29    30    1
    28    30    31    1
    29    31    32    1
    30    32    33    1
    31    33    34    1
    32    34    35    1
    33    35    36    1
    34    36    37    1
    35    36    38    1
    36    36    39    1
    37     5     6   ar
    38    13     8    1
    39     6     1   ar
    40    19    14   ar
    41    34    29    1
    42    39    30    1
    43    38    32    1
    44    27    28    1
    45    37    40    1
@<TRIPOS>MOLECULE
*****
 40 45 0 0 0
SMALL
GASTEIGER

@<TRIPOS>ATOM
      1 C         142.2779  139.0478  158.9364 C.ar    1  UNL1        0.2203
      2 N         141.6296  139.9799  157.9561 N.ar    1  UNL1       -0.2121
      3 C         141.5742  139.6185  156.5014 C.ar    1  UNL1        0.1035
      4 C         142.1671  138.3250  156.0269 C.ar    1  UNL1        0.0445
      5 C         142.8153  137.3928  157.0071 C.ar    1  UNL1        0.1389
      6 N         142.8707  137.7542  158.4619 N.ar    1  UNL1       -0.2090
      7 C         139.9342  138.4665  160.7167 C.3     1  UNL1        0.0233
      8 C         141.1614  139.1186  161.2813 C.3     1  UNL1        0.0953
      9 C         141.2169  139.4800  162.7360 C.3     1  UNL1        0.1106
     10 N         142.4441  140.1321  163.3006 N.pl3   1  UNL1       -0.3024
     11 C         143.6159  140.4227  162.4105 C.3     1  UNL1        0.1124
     12 C         143.5604  140.0613  160.9557 C.3     1  UNL1        0.1150
     13 N         142.3332  139.4092  160.3912 N.pl3   1  UNL1       -0.2764
     14 C         142.4994  140.4936  164.7554 C.ar    1  UNL1        0.0758
     15 C         142.4852  141.9347  165.1712 C.ar    1  UNL1        0.0181
     16 C         142.5406  142.2962  166.6259 C.ar    1  UNL1        0.0198
     17 C         142.6102  141.2165  167.6649 C.ar    1  UNL1        0.1080
     18 C         142.6244  139.7753  167.2491 C.ar    1  UNL1        0.0492
     19 C         142.5690  139.4139  165.7943 C.ar    1  UNL1        0.1546
     20 F         142.5832  137.9727  165.3785 F       1  UNL1       -0.2028
     21 S         142.6655  141.5780  169.1196 S.O2    1  UNL1        0.0105
     22 C         142.7209  141.9395  170.5743 C.3     1  UNL1        0.1816
     23 O         143.6637  142.6551  168.8139 O.2     1  UNL1       -0.1686
     24 O         141.6674  140.5008  169.4252 O.2     1  UNL1       -0.1686
     25 C         143.4082  136.0992  156.5326 C.2     1  UNL1        0.2637
     26 O         144.4452  136.1024  155.4488 O.2     1  UNL1       -0.2685
     27 N         142.9641  134.8025  157.1418 N.am    1  UNL1       -0.3013
     28 H         142.2835  134.8004  157.8531 H       1  UNL1        0.1497
     29 C         143.5570  133.5089  156.6672 C.3     1  UNL1        0.0719
     30 C         143.1267  132.9235  155.3549 C.3     1  UNL1        0.0203
     31 C         144.1498  132.2153  156.1926 C.3     1  UNL1        0.0018
     32 C         144.7426  130.9218  155.7180 C.3     1  UNL1        0.0024
     33 C         145.1729  131.5072  157.0304 C.3     1  UNL1        0.0018
     34 C         144.5800  132.8007  157.5049 C.3     1  UNL1        0.0203
     35 C         144.1284  130.9736  154.8093 C.3     1  UNL1        0.0285
     36 C         143.2893  131.0445  153.5680 C.3     1  UNL1        0.0884
     37 O         142.8591  130.4591  152.2557 O.3     1  UNL1       -0.3867
     38 C         144.3124  130.3364  154.4057 C.3     1  UNL1        0.0269
     39 C         142.6965  132.3380  154.0426 C.3     1  UNL1        0.0285
     40 H         143.3351  129.6283  152.1006 H       1  UNL1        0.2102
@<TRIPOS>BOND
     1     8     7    1
     2     8     9    1
     3     9    10    1
     4    10    14    1
     5    14    15   ar
     6    15    16   ar
     7    16    17   ar
     8    17    21    1
     9    21    22    1
    10    21    23    2
    11    21    24    2
    12    17    18   ar
    13    18    19   ar
    14    19    20    1
    15    10    11    1
    16    11    12    1
    17    12    13    1
    18    13     1    1
    19     1     2   ar
    20     2     3   ar
    21     3     4   ar
    22     4     5   ar
    23     5    25    1
    24    25    26    2
    25    25    27   am
    26    27    29    1
    27    29    30    1
    28    30    31    1
    29    31    32    1
    30    32    33    1
    31    33    34    1
    32    34    35    1
    33    35    36    1
    34    36    37    1
    35    36    38    1
    36    36    39    1
    37     5     6   ar
    38    13     8    1
    39     6     1   ar
    40    19    14   ar
    41    34    29    1
    42    39    30    1
    43    38    32    1
    44    27    28    1
    45    37    40    1
@<TRIPOS>MOLECULE
*****
 40 45 0 0 0
SMALL
GASTEIGER

@<TRIPOS>ATOM
      1 C         143.3377  139.1913  158.7831 C.ar    1  UNL1        0.2203
      2 N         142.4850  138.0789  158.2488 N.ar    1  UNL1       -0.2121
      3 C         142.5773  137.6914  156.8027 C.ar    1  UNL1        0.1035
      4 C         143.5223  138.4163  155.8909 C.ar    1  UNL1        0.0445
      5 C         144.3750  139.5287  156.4252 C.ar    1  UNL1        0.1389
      6 N         144.2827  139.9162  157.8713 N.ar    1  UNL1       -0.2090
      7 C         141.4636  141.3737  159.6346 C.3     1  UNL1        0.0233
      8 C         142.3083  140.6700  160.6550 C.3     1  UNL1        0.0953
      9 C         142.2160  141.0574  162.1011 C.3     1  UNL1        0.1106
     10 N         143.0607  140.3537  163.1216 N.pl3   1  UNL1       -0.3024
     11 C         143.9978  139.2625  162.6958 C.3     1  UNL1        0.1124
     12 C         144.0901  138.8751  161.2497 C.3     1  UNL1        0.1150
     13 N         143.2454  139.5788  160.2293 N.pl3   1  UNL1       -0.2764
     14 C         142.9684  140.7412  164.5677 C.ar    1  UNL1        0.0758
     15 C         143.4831  142.0752  165.0211 C.ar    1  UNL1        0.0181
     16 C         143.3908  142.4627  166.4672 C.ar    1  UNL1        0.0198
     17 C         142.7837  141.5162  167.4600 C.ar    1  UNL1        0.1080
     18 C         142.2690  140.1822  167.0067 C.ar    1  UNL1        0.0492
     19 C         142.3614  139.7947  165.5605 C.ar    1  UNL1        0.1546
     20 F         141.8466  138.4607  165.1072 F       1  UNL1       -0.2028
     21 S         142.6914  141.9037  168.9061 S.O2    1  UNL1        0.0105
     22 C         142.5990  142.2913  170.3522 C.3     1  UNL1        0.1816
     23 O         141.4642  141.0543  169.0554 O.2     1  UNL1       -0.1686
     24 O         143.9186  142.7532  168.7568 O.2     1  UNL1       -0.1686
     25 C         145.3201  140.2536  155.5133 C.2     1  UNL1        0.2637
     26 O         145.2938  139.9839  154.0380 O.2     1  UNL1       -0.2685
     27 N         146.2913  141.2482  156.0767 N.am    1  UNL1       -0.3013
     28 H         146.3085  141.4252  157.0450 H       1  UNL1        0.1497
     29 C         147.2363  141.9731  155.1648 C.3     1  UNL1        0.0719
     30 C         148.6995  141.6431  155.1851 C.3     1  UNL1        0.0203
     31 C         148.1814  142.6979  154.2530 C.3     1  UNL1        0.0018
     32 C         149.1264  143.4228  153.3412 C.3     1  UNL1        0.0024
     33 C         147.6633  143.7527  153.3208 C.3     1  UNL1        0.0018
     34 C         146.7182  143.0278  154.2327 C.3     1  UNL1        0.0203
     35 C         149.9638  142.8375  153.7437 C.3     1  UNL1        0.0285
     36 C         151.1076  142.0380  154.2936 C.3     1  UNL1        0.0884
     37 O         152.5707  141.7081  154.3140 O.3     1  UNL1       -0.3867
     38 C         150.5895  143.0928  153.3615 C.3     1  UNL1        0.0269
     39 C         150.1626  141.3132  155.2055 C.3     1  UNL1        0.0285
     40 H         153.0364  142.2634  153.6692 H       1  UNL1        0.2102
@<TRIPOS>BOND
     1     8     7    1
     2     8     9    1
     3     9    10    1
     4    10    14    1
     5    14    15   ar
     6    15    16   ar
     7    16    17   ar
     8    17    21    1
     9    21    22    1
    10    21    23    2
    11    21    24    2
    12    17    18   ar
    13    18    19   ar
    14    19    20    1
    15    10    11    1
    16    11    12    1
    17    12    13    1
    18    13     1    1
    19     1     2   ar
    20     2     3   ar
    21     3     4   ar
    22     4     5   ar
    23     5    25    1
    24    25    26    2
    25    25    27   am
    26    27    29    1
    27    29    30    1
    28    30    31    1
    29    31    32    1
    30    32    33    1
    31    33    34    1
    32    34    35    1
    33    35    36    1
    34    36    37    1
    35    36    38    1
    36    36    39    1
    37     5     6   ar
    38    13     8    1
    39     6     1   ar
    40    19    14   ar
    41    34    29    1
    42    39    30    1
    43    38    32    1
    44    27    28    1
    45    37    40    1
@<TRIPOS>MOLECULE
*****
 40 45 0 0 0
SMALL
GASTEIGER

@<TRIPOS>ATOM
      1 C         141.0287  142.0957  160.9480 C.ar    1  UNL1        0.2203
      2 N         139.5901  142.0502  160.5256 N.ar    1  UNL1       -0.2121
      3 C         138.5032  142.1072  161.5577 C.ar    1  UNL1        0.1035
      4 C         138.8549  142.2097  163.0122 C.ar    1  UNL1        0.0445
      5 C         140.2934  142.2551  163.4347 C.ar    1  UNL1        0.1389
      6 N         141.3803  142.1982  162.4026 N.ar    1  UNL1       -0.2090
      7 C         141.7681  144.5633  159.4104 C.3     1  UNL1        0.0233
      8 C         142.4853  143.2724  159.1470 C.3     1  UNL1        0.0953
      9 C         143.5722  143.2154  158.1149 C.3     1  UNL1        0.1106
     10 N         144.2894  141.9246  157.8515 N.pl3   1  UNL1       -0.3024
     11 C         143.9197  140.6908  158.6203 C.3     1  UNL1        0.1124
     12 C         142.8329  140.7478  159.6524 C.3     1  UNL1        0.1150
     13 N         142.1156  142.0387  159.9158 N.pl3   1  UNL1       -0.2764
     14 C         145.3764  141.8676  156.8193 C.ar    1  UNL1        0.0758
     15 C         145.1378  141.1623  155.5171 C.ar    1  UNL1        0.0181
     16 C         146.2246  141.1053  154.4849 C.ar    1  UNL1        0.0198
     17 C         147.5502  141.7535  154.7549 C.ar    1  UNL1        0.1080
     18 C         147.7888  142.4588  156.0571 C.ar    1  UNL1        0.0492
     19 C         146.7018  142.5158  157.0893 C.ar    1  UNL1        0.1546
     20 F         146.9404  143.2210  158.3915 F       1  UNL1       -0.2028
     21 S         148.6370  141.6965  153.7227 S.O2    1  UNL1        0.0105
     22 C         149.7239  141.6395  152.6905 C.3     1  UNL1        0.1816
     23 O         147.6064  141.7533  152.6344 O.2     1  UNL1       -0.1686
     24 O         149.6676  141.6397  154.8111 O.2     1  UNL1       -0.1686
     25 C         140.6450  142.3577  164.8893 C.2     1  UNL1        0.2637
     26 O         140.1345  143.5083  165.7050 O.2     1  UNL1       -0.2685
     27 N         141.5072  141.3096  165.5282 N.am    1  UNL1       -0.3013
     28 H         141.8423  140.5544  164.9928 H       1  UNL1        0.1497
     29 C         141.8588  141.4121  166.9829 C.3     1  UNL1        0.0719
     30 C         141.0344  140.6891  168.0064 C.3     1  UNL1        0.0203
     31 C         142.2104  141.5145  168.4374 C.3     1  UNL1        0.0018
     32 C         142.5619  141.6170  169.8920 C.3     1  UNL1        0.0024
     33 C         143.3863  142.3399  168.8684 C.3     1  UNL1        0.0018
     34 C         143.0348  142.2375  167.4138 C.3     1  UNL1        0.0203
     35 C         141.7165  140.9626  170.1425 C.3     1  UNL1        0.0285
     36 C         140.5616  140.0687  170.4846 C.3     1  UNL1        0.0884
     37 O         139.7372  139.3458  171.5082 O.3     1  UNL1       -0.3867
     38 C         141.7375  140.8941  170.9156 C.3     1  UNL1        0.0269
     39 C         140.2100  139.9662  169.0300 C.3     1  UNL1        0.0285
     40 H         140.0972  139.5165  172.3926 H       1  UNL1        0.2102
@<TRIPOS>BOND
     1     8     7    1
     2     8     9    1
     3     9    10    1
     4    10    14    1
     5    14    15   ar
     6    15    16   ar
     7    16    17   ar
     8    17    21    1
     9    21    22    1
    10    21    23    2
    11    21    24    2
    12    17    18   ar
    13    18    19   ar
    14    19    20    1
    15    10    11    1
    16    11    12    1
    17    12    13    1
    18    13     1    1
    19     1     2   ar
    20     2     3   ar
    21     3     4   ar
    22     4     5   ar
    23     5    25    1
    24    25    26    2
    25    25    27   am
    26    27    29    1
    27    29    30    1
    28    30    31    1
    29    31    32    1
    30    32    33    1
    31    33    34    1
    32    34    35    1
    33    35    36    1
    34    36    37    1
    35    36    38    1
    36    36    39    1
    37     5     6   ar
    38    13     8    1
    39     6     1   ar
    40    19    14   ar
    41    34    29    1
    42    39    30    1
    43    38    32    1
    44    27    28    1
    45    37    40    1
@<TRIPOS>MOLECULE
*****
 40 45 0 0 0
SMALL
GASTEIGER

@<TRIPOS>ATOM
      1 C         143.0698  140.2717  159.2423 C.ar    1  UNL1        0.2203
      2 N         142.9616  141.5326  158.4370 N.ar    1  UNL1       -0.2121
      3 C         143.0352  141.4750  156.9400 C.ar    1  UNL1        0.1035
      4 C         143.2170  140.1565  156.2482 C.ar    1  UNL1        0.0445
      5 C         143.3252  138.8957  157.0535 C.ar    1  UNL1        0.1389
      6 N         143.2516  138.9533  158.5506 N.ar    1  UNL1       -0.2090
      7 C         140.4481  139.8338  160.6333 C.3     1  UNL1        0.0233
      8 C         141.6854  140.1104  161.4349 C.3     1  UNL1        0.0953
      9 C         141.6118  140.1680  162.9319 C.3     1  UNL1        0.1106
     10 N         142.8491  140.4447  163.7336 N.pl3   1  UNL1       -0.3024
     11 C         144.1599  140.6637  163.0381 C.3     1  UNL1        0.1124
     12 C         144.2335  140.6060  161.5411 C.3     1  UNL1        0.1150
     13 N         142.9962  140.3294  160.7394 N.pl3   1  UNL1       -0.2764
     14 C         142.7755  140.5023  165.2307 C.ar    1  UNL1        0.0758
     15 C         142.8083  141.8275  165.9327 C.ar    1  UNL1        0.0181
     16 C         142.7347  141.8852  167.4298 C.ar    1  UNL1        0.0198
     17 C         142.6283  140.6177  168.2249 C.ar    1  UNL1        0.1080
     18 C         142.5955  139.2925  167.5229 C.ar    1  UNL1        0.0492
     19 C         142.6691  139.2348  166.0257 C.ar    1  UNL1        0.1546
     20 F         142.6363  137.9097  165.3237 F       1  UNL1       -0.2028
     21 S         142.5547  140.6754  169.7219 S.O2    1  UNL1        0.0105
     22 C         142.4811  140.7330  171.2190 C.3     1  UNL1        0.1816
     23 O         143.0198  139.2514  169.7997 O.2     1  UNL1       -0.1686
     24 O         142.0897  142.0993  169.6442 O.2     1  UNL1       -0.1686
     25 C         143.5069  137.5772  156.3617 C.2     1  UNL1        0.2637
     26 O         144.7629  137.3025  155.5890 O.2     1  UNL1       -0.2685
     27 N         142.4328  136.5334  156.4425 N.am    1  UNL1       -0.3013
     28 H         141.6084  136.7136  156.9497 H       1  UNL1        0.1497
     29 C         142.6145  135.2149  155.7507 C.3     1  UNL1        0.0719
     30 C         143.2767  134.0763  156.4685 C.3     1  UNL1        0.0203
     31 C         142.7963  133.8964  155.0589 C.3     1  UNL1        0.0018
     32 C         142.9781  132.5779  154.3672 C.3     1  UNL1        0.0024
     33 C         142.3160  133.7165  153.6494 C.3     1  UNL1        0.0018
     34 C         142.1342  135.0350  154.3411 C.3     1  UNL1        0.0203
     35 C         143.4610  132.1727  155.2663 C.3     1  UNL1        0.0285
     36 C         144.1206  131.6192  156.4945 C.3     1  UNL1        0.0884
     37 O         144.7827  130.4807  157.2123 O.3     1  UNL1       -0.3867
     38 C         143.6403  131.4394  155.0850 C.3     1  UNL1        0.0269
     39 C         143.9388  132.9377  157.1863 C.3     1  UNL1        0.0285
     40 H         144.8203  129.7078  156.6274 H       1  UNL1        0.2102
@<TRIPOS>BOND
     1     8     7    1
     2     8     9    1
     3     9    10    1
     4    10    14    1
     5    14    15   ar
     6    15    16   ar
     7    16    17   ar
     8    17    21    1
     9    21    22    1
    10    21    23    2
    11    21    24    2
    12    17    18   ar
    13    18    19   ar
    14    19    20    1
    15    10    11    1
    16    11    12    1
    17    12    13    1
    18    13     1    1
    19     1     2   ar
    20     2     3   ar
    21     3     4   ar
    22     4     5   ar
    23     5    25    1
    24    25    26    2
    25    25    27   am
    26    27    29    1
    27    29    30    1
    28    30    31    1
    29    31    32    1
    30    32    33    1
    31    33    34    1
    32    34    35    1
    33    35    36    1
    34    36    37    1
    35    36    38    1
    36    36    39    1
    37     5     6   ar
    38    13     8    1
    39     6     1   ar
    40    19    14   ar
    41    34    29    1
    42    39    30    1
    43    38    32    1
    44    27    28    1
    45    37    40    1
@<TRIPOS>MOLECULE
*****
 40 45 0 0 0
SMALL
GASTEIGER

@<TRIPOS>ATOM
      1 C         140.4759  140.0941  161.3926 C.ar    1  UNL1        0.2203
      2 N         139.2630  139.3265  160.9570 N.ar    1  UNL1       -0.2121
      3 C         138.1643  139.0408  161.9374 C.ar    1  UNL1        0.1035
      4 C         138.2785  139.5226  163.3533 C.ar    1  UNL1        0.0445
      5 C         139.4914  140.2902  163.7888 C.ar    1  UNL1        0.1389
      6 N         140.5901  140.5759  162.8084 N.ar    1  UNL1       -0.2090
      7 C         140.3397  142.5372  159.6568 C.3     1  UNL1        0.0233
      8 C         141.5066  141.6013  159.5443 C.3     1  UNL1        0.0953
      9 C         142.6053  141.8870  158.5640 C.3     1  UNL1        0.1106
     10 N         143.7721  140.9511  158.4514 N.pl3   1  UNL1       -0.3024
     11 C         143.8403  139.7296  159.3193 C.3     1  UNL1        0.1124
     12 C         142.7415  139.4439  160.2996 C.3     1  UNL1        0.1150
     13 N         141.5747  140.3798  160.4121 N.pl3   1  UNL1       -0.2764
     14 C         144.8709  141.2368  157.4710 C.ar    1  UNL1        0.0758
     15 C         145.8590  142.3305  157.7496 C.ar    1  UNL1        0.0181
     16 C         146.9577  142.6163  156.7692 C.ar    1  UNL1        0.0198
     17 C         147.0684  141.8083  155.5102 C.ar    1  UNL1        0.1080
     18 C         146.0803  140.7146  155.2317 C.ar    1  UNL1        0.0492
     19 C         144.9816  140.4289  156.2121 C.ar    1  UNL1        0.1546
     20 F         143.9935  139.3352  155.9335 F       1  UNL1       -0.2028
     21 S         148.1671  142.0940  154.5299 S.O2    1  UNL1        0.0105
     22 C         149.2658  142.3798  153.5495 C.3     1  UNL1        0.1816
     23 O         147.1526  142.2356  153.4342 O.2     1  UNL1       -0.1686
     24 O         149.1816  141.9524  155.6256 O.2     1  UNL1       -0.1686
     25 C         139.6055  140.7720  165.2047 C.2     1  UNL1        0.2637
     26 O         138.9766  142.0730  165.6072 O.2     1  UNL1       -0.2685
     27 N         140.3486  139.9530  166.2181 N.am    1  UNL1       -0.3013
     28 H         140.7614  139.0992  165.9539 H       1  UNL1        0.1497
     29 C         140.4627  140.4349  167.6341 C.3     1  UNL1        0.0719
     30 C         141.6969  141.1601  168.0823 C.3     1  UNL1        0.0203
     31 C         140.5769  140.9167  169.0499 C.3     1  UNL1        0.0018
     32 C         140.6911  141.3986  170.4658 C.3     1  UNL1        0.0024
     33 C         139.4570  140.6733  170.0176 C.3     1  UNL1        0.0018
     34 C         139.3428  140.1914  168.6017 C.3     1  UNL1        0.0203
     35 C         141.6861  141.8080  170.2463 C.3     1  UNL1        0.0285
     36 C         143.0452  142.3673  169.9464 C.3     1  UNL1        0.0884
     37 O         144.2793  143.0926  170.3946 O.3     1  UNL1       -0.3867
     38 C         141.9252  142.1238  170.9140 C.3     1  UNL1        0.0269
     39 C         142.9310  141.8854  168.5305 C.3     1  UNL1        0.0285
     40 H         144.1913  143.3328  171.3302 H       1  UNL1        0.2102
@<TRIPOS>BOND
     1     8     7    1
     2     8     9    1
     3     9    10    1
     4    10    14    1
     5    14    15   ar
     6    15    16   ar
     7    16    17   ar
     8    17    21    1
     9    21    22    1
    10    21    23    2
    11    21    24    2
    12    17    18   ar
    13    18    19   ar
    14    19    20    1
    15    10    11    1
    16    11    12    1
    17    12    13    1
    18    13     1    1
    19     1     2   ar
    20     2     3   ar
    21     3     4   ar
    22     4     5   ar
    23     5    25    1
    24    25    26    2
    25    25    27   am
    26    27    29    1
    27    29    30    1
    28    30    31    1
    29    31    32    1
    30    32    33    1
    31    33    34    1
    32    34    35    1
    33    35    36    1
    34    36    37    1
    35    36    38    1
    36    36    39    1
    37     5     6   ar
    38    13     8    1
    39     6     1   ar
    40    19    14   ar
    41    34    29    1
    42    39    30    1
    43    38    32    1
    44    27    28    1
    45    37    40    1
@<TRIPOS>MOLECULE
*****
 40 45 0 0 0
SMALL
GASTEIGER

@<TRIPOS>ATOM
      1 C         139.7820  142.0633  161.5172 C.ar    1  UNL1        0.2203
      2 N         138.9389  143.2636  161.2035 N.ar    1  UNL1       -0.2121
      3 C         138.7058  144.3111  162.2515 C.ar    1  UNL1        0.1035
      4 C         139.3159  144.1582  163.6133 C.ar    1  UNL1        0.0445
      5 C         140.1590  142.9579  163.9270 C.ar    1  UNL1        0.1389
      6 N         140.3921  141.9105  162.8790 N.ar    1  UNL1       -0.2090
      7 C         138.0706  139.6002  161.4514 C.3     1  UNL1        0.0233
      8 C         139.1594  139.7843  160.4362 C.3     1  UNL1        0.0953
      9 C         139.3925  138.7369  159.3881 C.3     1  UNL1        0.1106
     10 N         140.4813  138.9210  158.3729 N.pl3   1  UNL1       -0.3024
     11 C         141.3370  140.1525  158.4058 C.3     1  UNL1        0.1124
     12 C         141.1039  141.1999  159.4539 C.3     1  UNL1        0.1150
     13 N         140.0151  141.0158  160.4691 N.pl3   1  UNL1       -0.2764
     14 C         140.7143  137.8735  157.3248 C.ar    1  UNL1        0.0758
     15 C         139.6876  137.6401  156.2564 C.ar    1  UNL1        0.0181
     16 C         139.9206  136.5927  155.2083 C.ar    1  UNL1        0.0198
     17 C         141.1804  135.7785  155.2285 C.ar    1  UNL1        0.1080
     18 C         142.2071  136.0119  156.2969 C.ar    1  UNL1        0.0492
     19 C         141.9740  137.0594  157.3450 C.ar    1  UNL1        0.1546
     20 F         143.0007  137.2928  158.4134 F       1  UNL1       -0.2028
     21 S         141.4134  134.7311  154.1804 S.O2    1  UNL1        0.0105
     22 C         141.6464  133.6837  153.1323 C.3     1  UNL1        0.1816
     23 O         141.2734  133.6593  155.2204 O.2     1  UNL1       -0.1686
     24 O         141.5533  135.8029  153.1404 O.2     1  UNL1       -0.1686
     25 C         140.7691  142.8051  165.2889 C.2     1  UNL1        0.2637
     26 O         142.2128  143.1488  165.5067 O.2     1  UNL1       -0.2685
     27 N         139.9354  142.3087  166.4327 N.am    1  UNL1       -0.3013
     28 H         138.9878  142.0832  166.2897 H       1  UNL1        0.1497
     29 C         140.5454  142.1559  167.7946 C.3     1  UNL1        0.0719
     30 C         141.1747  140.8538  168.1927 C.3     1  UNL1        0.0203
     31 C         141.1555  142.0031  169.1563 C.3     1  UNL1        0.0018
     32 C         141.7655  141.8503  170.5181 C.3     1  UNL1        0.0024
     33 C         141.1363  143.1524  170.1200 C.3     1  UNL1        0.0018
     34 C         140.5263  143.3052  168.7582 C.3     1  UNL1        0.0203
     35 C         142.0396  140.8141  170.2791 C.3     1  UNL1        0.0285
     36 C         142.4140  139.3988  169.9525 C.3     1  UNL1        0.0884
     37 O         143.0432  138.0967  170.3506 O.3     1  UNL1       -0.3867
     38 C         142.3948  140.5481  170.9162 C.3     1  UNL1        0.0269
     39 C         141.8039  139.5516  168.5908 C.3     1  UNL1        0.0285
     40 H         143.3868  138.1668  171.2550 H       1  UNL1        0.2102
@<TRIPOS>BOND
     1     8     7    1
     2     8     9    1
     3     9    10    1
     4    10    14    1
     5    14    15   ar
     6    15    16   ar
     7    16    17   ar
     8    17    21    1
     9    21    22    1
    10    21    23    2
    11    21    24    2
    12    17    18   ar
    13    18    19   ar
    14    19    20    1
    15    10    11    1
    16    11    12    1
    17    12    13    1
    18    13     1    1
    19     1     2   ar
    20     2     3   ar
    21     3     4   ar
    22     4     5   ar
    23     5    25    1
    24    25    26    2
    25    25    27   am
    26    27    29    1
    27    29    30    1
    28    30    31    1
    29    31    32    1
    30    32    33    1
    31    33    34    1
    32    34    35    1
    33    35    36    1
    34    36    37    1
    35    36    38    1
    36    36    39    1
    37     5     6   ar
    38    13     8    1
    39     6     1   ar
    40    19    14   ar
    41    34    29    1
    42    39    30    1
    43    38    32    1
    44    27    28    1
    45    37    40    1
@<TRIPOS>MOLECULE
*****
 40 45 0 0 0
SMALL
GASTEIGER

@<TRIPOS>ATOM
      1 C         138.5095  141.5280  159.2727 C.ar    1  UNL1        0.2203
      2 N         138.0572  140.2524  158.6260 N.ar    1  UNL1       -0.2121
      3 C         137.7546  140.2224  157.1572 C.ar    1  UNL1        0.1035
      4 C         137.9045  141.4680  156.3350 C.ar    1  UNL1        0.0445
      5 C         138.3568  142.7436  156.9817 C.ar    1  UNL1        0.1389
      6 N         138.6594  142.7736  158.4505 N.ar    1  UNL1       -0.2090
      7 C         141.3452  141.2999  160.2252 C.3     1  UNL1        0.0233
      8 C         140.2299  141.4439  161.2178 C.3     1  UNL1        0.0953
      9 C         140.5323  141.4739  162.6867 C.3     1  UNL1        0.1106
     10 N         139.4170  141.6179  163.6793 N.pl3   1  UNL1       -0.3024
     11 C         137.9993  141.7320  163.2031 C.3     1  UNL1        0.1124
     12 C         137.6968  141.7020  161.7342 C.3     1  UNL1        0.1150
     13 N         138.8121  141.5580  160.7416 N.pl3   1  UNL1       -0.2764
     14 C         139.7196  141.6479  165.1482 C.ar    1  UNL1        0.0758
     15 C         139.5932  140.3966  165.9656 C.ar    1  UNL1        0.0181
     16 C         139.8957  140.4265  167.4345 C.ar    1  UNL1        0.0198
     17 C         140.3246  141.7078  168.0860 C.ar    1  UNL1        0.1080
     18 C         140.4510  142.9591  167.2686 C.ar    1  UNL1        0.0492
     19 C         140.1485  142.9291  165.7996 C.ar    1  UNL1        0.1546
     20 F         140.2749  144.1805  164.9822 F       1  UNL1       -0.2028
     21 S         140.6272  141.7377  169.5548 S.O2    1  UNL1        0.0105
     22 C         140.9297  141.7676  171.0237 C.3     1  UNL1        0.1816
     23 O         139.3045  141.0905  169.8404 O.2     1  UNL1       -0.1686
     24 O         141.9499  142.3848  169.2692 O.2     1  UNL1       -0.1686
     25 C         138.5066  143.9893  156.1595 C.2     1  UNL1        0.2637
     26 O         137.3847  144.4420  155.2727 O.2     1  UNL1       -0.2685
     27 N         139.7783  144.7821  156.2240 N.am    1  UNL1       -0.3013
     28 H         140.5146  144.4850  156.8060 H       1  UNL1        0.1497
     29 C         139.9281  146.0278  155.4018 C.3     1  UNL1        0.0719
     30 C         139.2920  147.3078  155.8568 C.3     1  UNL1        0.0203
     31 C         140.0779  147.2734  154.5796 C.3     1  UNL1        0.0018
     32 C         140.2277  148.5190  153.7575 C.3     1  UNL1        0.0024
     33 C         140.8638  147.2390  153.3025 C.3     1  UNL1        0.0018
     34 C         140.7140  145.9934  154.1246 C.3     1  UNL1        0.0203
     35 C         139.6267  149.0745  154.4895 C.3     1  UNL1        0.0285
     36 C         138.8057  149.8334  155.4896 C.3     1  UNL1        0.0884
     37 O         138.1696  151.1133  155.9446 O.3     1  UNL1       -0.3867
     38 C         139.5916  149.7990  154.2125 C.3     1  UNL1        0.0269
     39 C         138.6559  148.5878  156.3118 C.3     1  UNL1        0.0285
     40 H         138.3619  151.8156  155.3037 H       1  UNL1        0.2102
@<TRIPOS>BOND
     1     8     7    1
     2     8     9    1
     3     9    10    1
     4    10    14    1
     5    14    15   ar
     6    15    16   ar
     7    16    17   ar
     8    17    21    1
     9    21    22    1
    10    21    23    2
    11    21    24    2
    12    17    18   ar
    13    18    19   ar
    14    19    20    1
    15    10    11    1
    16    11    12    1
    17    12    13    1
    18    13     1    1
    19     1     2   ar
    20     2     3   ar
    21     3     4   ar
    22     4     5   ar
    23     5    25    1
    24    25    26    2
    25    25    27   am
    26    27    29    1
    27    29    30    1
    28    30    31    1
    29    31    32    1
    30    32    33    1
    31    33    34    1
    32    34    35    1
    33    35    36    1
    34    36    37    1
    35    36    38    1
    36    36    39    1
    37     5     6   ar
    38    13     8    1
    39     6     1   ar
    40    19    14   ar
    41    34    29    1
    42    39    30    1
    43    38    32    1
    44    27    28    1
    45    37    40    1
