@<TRIPOS>MOLECULE
*****
 37 41 0 0 0
SMALL
GASTEIGER

@<TRIPOS>ATOM
      1 C         138.1915  142.6529  161.9335 C.ar    1  UNL1        0.1725
      2 C         138.4713  141.2541  162.3973 C.ar    1  UNL1        0.0428
      3 C         138.9352  141.0086  163.8025 C.ar    1  UNL1        0.0340
      4 C         139.2149  139.6097  164.2663 C.ar    1  UNL1        0.0477
      5 C         139.6788  139.3641  165.6714 C.ar    1  UNL1        0.0365
      6 C         139.8630  140.5174  166.6128 C.ar    1  UNL1        0.1169
      7 N         139.5832  141.9162  166.1490 N.ar    1  UNL1       -0.2421
      8 C         139.1193  142.1617  164.7438 C.ar    1  UNL1        0.0858
      9 C         138.8396  143.5605  164.2800 C.ar    1  UNL1        0.0592
     10 C         138.3757  143.8061  162.8749 C.ar    1  UNL1        0.1737
     11 C         140.3269  140.2718  168.0180 C.ar    1  UNL1        0.1624
     12 C         139.4566  140.2290  169.2390 C.ar    1  UNL1        0.0418
     13 C         140.3344  139.9567  170.4245 C.ar    1  UNL1        0.0361
     14 C         141.7471  139.8312  169.9362 C.ar    1  UNL1        0.1234
     15 C         142.9527  139.5587  170.7859 C.3     1  UNL1        0.0725
     16 O         141.7424  140.0260  168.4489 O.2     1  UNL1       -0.4562
     17 C         138.6231  142.5614  159.3732 C.3     1  UNL1        0.2526
     18 O         137.7276  142.8985  160.5284 O.3     1  UNL1       -0.4684
     19 N         139.0308  138.4565  163.3249 N.pl3   1  UNL1       -0.3334
     20 H         138.3128  137.8017  163.4832 H       1  UNL1        0.1468
     21 C         139.9404  138.3010  162.1423 C.3     1  UNL1        0.0798
     22 C         139.3848  138.3902  160.7519 C.3     1  UNL1        0.0415
     23 C         140.2944  138.2347  159.5694 C.3     1  UNL1        0.0952
     24 N         141.7596  137.9900  159.7773 N.am    1  UNL1       -0.2777
     25 C         142.6693  137.8345  158.5947 C.3     1  UNL1        0.1148
     26 C         142.3152  137.9008  161.1677 C.2     1  UNL1        0.2274
     27 O         143.7805  137.6561  161.3756 O.2     1  UNL1       -0.2748
     28 C         141.4056  138.0563  162.3503 C.3     1  UNL1        0.1047
     29 O         138.0959  145.2049  162.4111 O.3     1  UNL1       -0.4723
     30 C         139.1915  146.0245  161.7964 C.3     1  UNL1        0.2070
     31 C         140.6075  145.8524  162.2606 C.3     1  UNL1        0.0646
     32 C         141.4722  144.7884  161.6522 C.3     1  UNL1        0.0759
     33 N         141.9577  143.6450  162.4930 N.3     1  UNL1       -0.2726
     34 C         142.0167  142.2058  162.0746 C.3     1  UNL1        0.0721
     35 C         142.5650  141.4114  163.2228 C.3     1  UNL1        0.0188
     36 C         142.8449  142.3597  164.3508 C.3     1  UNL1        0.0188
     37 C         142.4696  143.7401  163.8998 C.3     1  UNL1        0.0721
@<TRIPOS>BOND
     1    17    18    1
     2    18     1    1
     3     1     2   ar
     4     2     3   ar
     5     3     4   ar
     6     4    19    1
     7    19    21    1
     8    21    22    1
     9    22    23    1
    10    23    24    1
    11    24    25    1
    12    24    26   am
    13    26    27    2
    14    26    28    1
    15     4     5   ar
    16     5     6   ar
    17     6    11    1
    18    11    12   ar
    19    12    13   ar
    20    13    14   ar
    21    14    15    1
    22    14    16   ar
    23     6     7   ar
    24     7     8   ar
    25     8     9   ar
    26     9    10   ar
    27    10    29    1
    28    29    30    1
    29    30    31    1
    30    31    32    1
    31    32    33    1
    32    33    34    1
    33    34    35    1
    34    35    36    1
    35    36    37    1
    36    10     1   ar
    37    37    33    1
    38     8     3   ar
    39    28    21    1
    40    16    11   ar
    41    19    20    1
@<TRIPOS>MOLECULE
*****
 37 41 0 0 0
SMALL
GASTEIGER

@<TRIPOS>ATOM
      1 C         143.4307  142.8974  160.6878 C.ar    1  UNL1        0.1725
      2 C         143.7171  141.4646  161.0265 C.ar    1  UNL1        0.0428
      3 C         143.3196  140.3750  160.0753 C.ar    1  UNL1        0.0340
      4 C         143.6061  138.9421  160.4141 C.ar    1  UNL1        0.0477
      5 C         143.2085  137.8526  159.4628 C.ar    1  UNL1        0.0365
      6 C         142.5245  138.1960  158.1728 C.ar    1  UNL1        0.1169
      7 N         142.2380  139.6288  157.8340 N.ar    1  UNL1       -0.2421
      8 C         142.6356  140.7184  158.7852 C.ar    1  UNL1        0.0858
      9 C         142.3491  142.1512  158.4465 C.ar    1  UNL1        0.0592
     10 C         142.7467  143.2407  159.3977 C.ar    1  UNL1        0.1737
     11 C         142.1270  137.1065  157.2215 C.ar    1  UNL1        0.1624
     12 C         141.0088  137.1718  156.2237 C.ar    1  UNL1        0.0418
     13 C         140.9686  135.8660  155.4865 C.ar    1  UNL1        0.0361
     14 C         142.0618  134.9937  156.0287 C.ar    1  UNL1        0.1234
     15 C         142.3827  133.5996  155.5778 C.3     1  UNL1        0.0725
     16 O         142.7777  135.7604  157.1010 O.2     1  UNL1       -0.4562
     17 C         144.4422  143.6397  162.9628 C.3     1  UNL1        0.2526
     18 O         143.8282  143.9869  161.6390 O.3     1  UNL1       -0.4684
     19 N         144.2901  138.5988  161.7041 N.pl3   1  UNL1       -0.3334
     20 H         145.2019  138.2277  161.6943 H       1  UNL1        0.1468
     21 C         143.5848  138.8208  163.0093 C.3     1  UNL1        0.0798
     22 C         144.2478  139.6166  164.0942 C.3     1  UNL1        0.0415
     23 C         143.5426  139.8386  165.3993 C.3     1  UNL1        0.0952
     24 N         142.1743  139.2648  165.6195 N.am    1  UNL1       -0.2777
     25 C         141.4690  139.4868  166.9246 C.3     1  UNL1        0.1148
     26 C         141.5113  138.4690  164.5345 C.2     1  UNL1        0.2274
     27 O         140.1429  137.8953  164.7548 O.2     1  UNL1       -0.2748
     28 C         142.2165  138.2470  163.2295 C.3     1  UNL1        0.1047
     29 O         142.4602  144.6737  159.0589 O.3     1  UNL1       -0.4723
     30 C         141.1315  145.2758  159.4084 C.3     1  UNL1        0.2070
     31 C         140.6630  145.2832  160.8333 C.3     1  UNL1        0.0646
     32 C         139.7022  144.2357  161.3124 C.3     1  UNL1        0.0759
     33 N         139.1436  144.3099  162.7025 N.3     1  UNL1       -0.2726
     34 C         139.8144  144.9341  163.8900 C.3     1  UNL1        0.0721
     35 C         138.9015  144.7828  165.0706 C.3     1  UNL1        0.0188
     36 C         137.6665  144.0651  164.6127 C.3     1  UNL1        0.0188
     37 C         137.8161  143.7728  163.1491 C.3     1  UNL1        0.0721
@<TRIPOS>BOND
     1    17    18    1
     2    18     1    1
     3     1     2   ar
     4     2     3   ar
     5     3     4   ar
     6     4    19    1
     7    19    21    1
     8    21    22    1
     9    22    23    1
    10    23    24    1
    11    24    25    1
    12    24    26   am
    13    26    27    2
    14    26    28    1
    15     4     5   ar
    16     5     6   ar
    17     6    11    1
    18    11    12   ar
    19    12    13   ar
    20    13    14   ar
    21    14    15    1
    22    14    16   ar
    23     6     7   ar
    24     7     8   ar
    25     8     9   ar
    26     9    10   ar
    27    10    29    1
    28    29    30    1
    29    30    31    1
    30    31    32    1
    31    32    33    1
    32    33    34    1
    33    34    35    1
    34    35    36    1
    35    36    37    1
    36    10     1   ar
    37    37    33    1
    38     8     3   ar
    39    28    21    1
    40    16    11   ar
    41    19    20    1
@<TRIPOS>MOLECULE
*****
 37 41 0 0 0
SMALL
GASTEIGER

@<TRIPOS>ATOM
      1 C         138.2678  143.0990  163.2663 C.ar    1  UNL1        0.1725
      2 C         138.3765  141.6060  163.3607 C.ar    1  UNL1        0.0428
      3 C         138.9055  140.8176  162.1994 C.ar    1  UNL1        0.0340
      4 C         139.0142  139.3245  162.2938 C.ar    1  UNL1        0.0477
      5 C         139.5433  138.5361  161.1325 C.ar    1  UNL1        0.0365
      6 C         139.9636  139.2408  159.8769 C.ar    1  UNL1        0.1169
      7 N         139.8550  140.7339  159.7825 N.ar    1  UNL1       -0.2421
      8 C         139.3259  141.5222  160.9437 C.ar    1  UNL1        0.0858
      9 C         139.2172  143.0153  160.8494 C.ar    1  UNL1        0.0592
     10 C         138.6882  143.8037  162.0106 C.ar    1  UNL1        0.1737
     11 C         140.4927  138.4524  158.7156 C.ar    1  UNL1        0.1624
     12 C         139.7112  138.0318  157.5062 C.ar    1  UNL1        0.0418
     13 C         140.6317  137.2656  156.6030 C.ar    1  UNL1        0.0361
     14 C         141.9820  137.2128  157.2541 C.ar    1  UNL1        0.1234
     15 C         143.2036  136.5439  156.6973 C.3     1  UNL1        0.0725
     16 O         141.8961  137.9463  158.5597 O.2     1  UNL1       -0.4562
     17 C         138.6894  144.5618  165.3716 C.3     1  UNL1        0.2526
     18 O         137.7387  143.8874  164.4275 O.3     1  UNL1       -0.4684
     19 N         138.5938  138.6198  163.5495 N.pl3   1  UNL1       -0.3334
     20 H         137.8812  137.9412  163.5181 H       1  UNL1        0.1468
     21 C         139.2592  138.9490  164.8530 C.3     1  UNL1        0.0798
     22 C         140.7436  139.1583  164.9055 C.3     1  UNL1        0.0415
     23 C         141.4089  139.4875  166.2089 C.3     1  UNL1        0.0952
     24 N         140.5899  139.6075  167.4597 N.am    1  UNL1       -0.2777
     25 C         141.2552  139.9367  168.7632 C.3     1  UNL1        0.1148
     26 C         139.1055  139.3982  167.4072 C.2     1  UNL1        0.2274
     27 O         138.2864  139.5181  168.6582 O.2     1  UNL1       -0.2748
     28 C         138.4401  139.0690  166.1038 C.3     1  UNL1        0.1047
     29 O         138.5795  145.2968  161.9162 O.3     1  UNL1       -0.4723
     30 C         139.8180  146.1424  161.9477 C.3     1  UNL1        0.2070
     31 C         140.9013  145.8491  162.9430 C.3     1  UNL1        0.0646
     32 C         141.9490  144.8222  162.6304 C.3     1  UNL1        0.0759
     33 N         142.6550  144.1079  163.7445 N.3     1  UNL1       -0.2726
     34 C         144.0793  144.3194  164.1645 C.3     1  UNL1        0.0721
     35 C         144.3653  143.3989  165.3138 C.3     1  UNL1        0.0188
     36 C         143.1175  142.6185  165.6041 C.3     1  UNL1        0.0188
     37 C         142.0606  143.0567  164.6342 C.3     1  UNL1        0.0721
@<TRIPOS>BOND
     1    17    18    1
     2    18     1    1
     3     1     2   ar
     4     2     3   ar
     5     3     4   ar
     6     4    19    1
     7    19    21    1
     8    21    22    1
     9    22    23    1
    10    23    24    1
    11    24    25    1
    12    24    26   am
    13    26    27    2
    14    26    28    1
    15     4     5   ar
    16     5     6   ar
    17     6    11    1
    18    11    12   ar
    19    12    13   ar
    20    13    14   ar
    21    14    15    1
    22    14    16   ar
    23     6     7   ar
    24     7     8   ar
    25     8     9   ar
    26     9    10   ar
    27    10    29    1
    28    29    30    1
    29    30    31    1
    30    31    32    1
    31    32    33    1
    32    33    34    1
    33    34    35    1
    34    35    36    1
    35    36    37    1
    36    10     1   ar
    37    37    33    1
    38     8     3   ar
    39    28    21    1
    40    16    11   ar
    41    19    20    1
@<TRIPOS>MOLECULE
*****
 37 41 0 0 0
SMALL
GASTEIGER

@<TRIPOS>ATOM
      1 C         140.5382  138.9316  162.7347 C.ar    1  UNL1        0.1725
      2 C         140.9721  139.7632  161.5642 C.ar    1  UNL1        0.0428
      3 C         139.9951  140.0924  160.4747 C.ar    1  UNL1        0.0340
      4 C         140.4291  140.9240  159.3042 C.ar    1  UNL1        0.0477
      5 C         139.4520  141.2532  158.2147 C.ar    1  UNL1        0.0365
      6 C         138.0409  140.7508  158.2958 C.ar    1  UNL1        0.1169
      7 N         137.6070  139.9192  159.4663 N.ar    1  UNL1       -0.2421
      8 C         138.5841  139.5900  160.5558 C.ar    1  UNL1        0.0858
      9 C         138.1501  138.7585  161.7263 C.ar    1  UNL1        0.0592
     10 C         139.1272  138.4293  162.8157 C.ar    1  UNL1        0.1737
     11 C         137.0639  141.0800  157.2063 C.ar    1  UNL1        0.1624
     12 C         137.1930  142.1978  156.2143 C.ar    1  UNL1        0.0418
     13 C         135.9950  142.1578  155.3124 C.ar    1  UNL1        0.0361
     14 C         135.1256  141.0154  155.7470 C.ar    1  UNL1        0.1234
     15 C         133.8241  140.6103  155.1210 C.3     1  UNL1        0.0725
     16 O         135.7861  140.3493  156.9175 O.2     1  UNL1       -0.4562
     17 C         142.4724  139.6481  164.3144 C.3     1  UNL1        0.2526
     18 O         141.5153  138.6024  163.8242 O.3     1  UNL1       -0.4684
     19 N         141.8401  141.4264  159.2232 N.pl3   1  UNL1       -0.3334
     20 H         142.4228  141.1402  158.4830 H       1  UNL1        0.1468
     21 C         142.3634  142.3649  160.2699 C.3     1  UNL1        0.0798
     22 C         143.7732  142.2272  160.7633 C.3     1  UNL1        0.0415
     23 C         144.2965  143.1656  161.8099 C.3     1  UNL1        0.0952
     24 N         143.4100  144.2416  162.3632 N.am    1  UNL1       -0.2777
     25 C         143.9333  145.1801  163.4099 C.3     1  UNL1        0.1148
     26 C         142.0002  144.3793  161.8698 C.2     1  UNL1        0.2274
     27 O         141.1137  145.4554  162.4231 O.2     1  UNL1       -0.2748
     28 C         141.4769  143.4409  160.8232 C.3     1  UNL1        0.1047
     29 O         138.6932  137.5976  163.9863 O.3     1  UNL1       -0.4723
     30 C         138.6607  138.1968  165.3610 C.3     1  UNL1        0.2070
     31 C         138.2294  139.6212  165.5484 C.3     1  UNL1        0.0646
     32 C         139.2573  140.6980  165.7324 C.3     1  UNL1        0.0759
     33 N         138.9458  142.1089  165.3296 N.3     1  UNL1       -0.2726
     34 C         139.7050  143.3332  165.7477 C.3     1  UNL1        0.0721
     35 C         139.0488  144.5242  165.1145 C.3     1  UNL1        0.0188
     36 C         137.8840  144.0360  164.3051 C.3     1  UNL1        0.0188
     37 C         137.8204  142.5433  164.4381 C.3     1  UNL1        0.0721
@<TRIPOS>BOND
     1    17    18    1
     2    18     1    1
     3     1     2   ar
     4     2     3   ar
     5     3     4   ar
     6     4    19    1
     7    19    21    1
     8    21    22    1
     9    22    23    1
    10    23    24    1
    11    24    25    1
    12    24    26   am
    13    26    27    2
    14    26    28    1
    15     4     5   ar
    16     5     6   ar
    17     6    11    1
    18    11    12   ar
    19    12    13   ar
    20    13    14   ar
    21    14    15    1
    22    14    16   ar
    23     6     7   ar
    24     7     8   ar
    25     8     9   ar
    26     9    10   ar
    27    10    29    1
    28    29    30    1
    29    30    31    1
    30    31    32    1
    31    32    33    1
    32    33    34    1
    33    34    35    1
    34    35    36    1
    35    36    37    1
    36    10     1   ar
    37    37    33    1
    38     8     3   ar
    39    28    21    1
    40    16    11   ar
    41    19    20    1
@<TRIPOS>MOLECULE
*****
 37 41 0 0 0
SMALL
GASTEIGER

@<TRIPOS>ATOM
      1 C         139.5005  143.1666  160.2474 C.ar    1  UNL1        0.1725
      2 C         140.1201  141.9031  159.7283 C.ar    1  UNL1        0.0428
      3 C         141.4247  141.9558  158.9899 C.ar    1  UNL1        0.0340
      4 C         142.0443  140.6922  158.4708 C.ar    1  UNL1        0.0477
      5 C         143.3490  140.7449  157.7324 C.ar    1  UNL1        0.0365
      6 C         144.0340  142.0613  157.5133 C.ar    1  UNL1        0.1169
      7 N         143.4144  143.3248  158.0324 N.ar    1  UNL1       -0.2421
      8 C         142.1098  143.2721  158.7708 C.ar    1  UNL1        0.0858
      9 C         141.4902  144.5356  159.2899 C.ar    1  UNL1        0.0592
     10 C         140.1856  144.4828  160.0283 C.ar    1  UNL1        0.1737
     11 C         145.3387  142.1140  156.7750 C.ar    1  UNL1        0.1624
     12 C         146.6458  142.5992  157.3282 C.ar    1  UNL1        0.0418
     13 C         147.6802  142.4759  156.2489 C.ar    1  UNL1        0.0361
     14 C         147.0124  141.9145  155.0287 C.ar    1  UNL1        0.1234
     15 C         147.6754  141.6272  153.7142 C.3     1  UNL1        0.0725
     16 O         145.5653  141.6908  155.3539 O.2     1  UNL1       -0.4562
     17 C         137.9480  142.0315  161.9942 C.3     1  UNL1        0.2526
     18 O         138.1959  143.1138  160.9858 O.3     1  UNL1       -0.4684
     19 N         141.3592  139.3759  158.6899 N.pl3   1  UNL1       -0.3334
     20 H         140.9500  138.9015  157.9305 H       1  UNL1        0.1468
     21 C         141.2978  138.7823  160.0662 C.3     1  UNL1        0.0798
     22 C         142.5643  138.5019  160.8193 C.3     1  UNL1        0.0415
     23 C         142.5029  137.9084  162.1955 C.3     1  UNL1        0.0952
     24 N         141.1749  137.5953  162.8185 N.am    1  UNL1       -0.2777
     25 C         141.1134  137.0018  164.1948 C.3     1  UNL1        0.1148
     26 C         139.9083  137.8757  162.0655 C.2     1  UNL1        0.2274
     27 O         138.5802  137.5626  162.6886 O.2     1  UNL1       -0.2748
     28 C         139.9697  138.4693  160.6893 C.3     1  UNL1        0.1047
     29 O         139.5660  145.7465  160.5474 O.3     1  UNL1       -0.4723
     30 C         139.8219  146.1820  161.9598 C.3     1  UNL1        0.2070
     31 C         139.2969  145.3652  163.1033 C.3     1  UNL1        0.0646
     32 C         140.2312  144.5055  163.9020 C.3     1  UNL1        0.0759
     33 N         141.6297  144.2652  163.4158 N.3     1  UNL1       -0.2726
     34 C         142.7866  145.2096  163.5568 C.3     1  UNL1        0.0721
     35 C         143.9888  144.5664  162.9314 C.3     1  UNL1        0.0188
     36 C         143.5749  143.2245  162.4040 C.3     1  UNL1        0.0188
     37 C         142.1170  143.0384  162.7034 C.3     1  UNL1        0.0721
@<TRIPOS>BOND
     1    17    18    1
     2    18     1    1
     3     1     2   ar
     4     2     3   ar
     5     3     4   ar
     6     4    19    1
     7    19    21    1
     8    21    22    1
     9    22    23    1
    10    23    24    1
    11    24    25    1
    12    24    26   am
    13    26    27    2
    14    26    28    1
    15     4     5   ar
    16     5     6   ar
    17     6    11    1
    18    11    12   ar
    19    12    13   ar
    20    13    14   ar
    21    14    15    1
    22    14    16   ar
    23     6     7   ar
    24     7     8   ar
    25     8     9   ar
    26     9    10   ar
    27    10    29    1
    28    29    30    1
    29    30    31    1
    30    31    32    1
    31    32    33    1
    32    33    34    1
    33    34    35    1
    34    35    36    1
    35    36    37    1
    36    10     1   ar
    37    37    33    1
    38     8     3   ar
    39    28    21    1
    40    16    11   ar
    41    19    20    1
@<TRIPOS>MOLECULE
*****
 37 41 0 0 0
SMALL
GASTEIGER

@<TRIPOS>ATOM
      1 C         139.1822  141.8655  162.4249 C.ar    1  UNL1        0.1725
      2 C         140.1347  142.9873  162.1346 C.ar    1  UNL1        0.0428
      3 C         140.1561  143.6201  160.7747 C.ar    1  UNL1        0.0340
      4 C         141.1086  144.7420  160.4844 C.ar    1  UNL1        0.0477
      5 C         141.1299  145.3747  159.1246 C.ar    1  UNL1        0.0365
      6 C         140.1988  144.8856  158.0551 C.ar    1  UNL1        0.1169
      7 N         139.2464  143.7638  158.3454 N.ar    1  UNL1       -0.2421
      8 C         139.2250  143.1310  159.7052 C.ar    1  UNL1        0.0858
      9 C         138.2725  142.0092  159.9956 C.ar    1  UNL1        0.0592
     10 C         138.2512  141.3765  161.3554 C.ar    1  UNL1        0.1737
     11 C         140.2202  145.5184  156.6952 C.ar    1  UNL1        0.1624
     12 C         140.6373  144.8506  155.4184 C.ar    1  UNL1        0.0418
     13 C         140.5031  145.8496  154.3076 C.ar    1  UNL1        0.0361
     14 C         140.0030  147.1347  154.8977 C.ar    1  UNL1        0.1234
     15 C         139.7264  148.4020  154.1445 C.3     1  UNL1        0.0725
     16 O         139.8282  146.9300  156.3734 O.2     1  UNL1       -0.4562
     17 C         138.1630  141.6877  164.8080 C.3     1  UNL1        0.2526
     18 O         139.1609  141.2327  163.7847 O.3     1  UNL1       -0.4684
     19 N         142.0396  145.2310  161.5540 N.pl3   1  UNL1       -0.3334
     20 H         141.9988  146.1687  161.8511 H       1  UNL1        0.1468
     21 C         143.0330  144.2914  162.1707 C.3     1  UNL1        0.0798
     22 C         143.7355  143.2769  161.3179 C.3     1  UNL1        0.0415
     23 C         144.7288  142.3373  161.9346 C.3     1  UNL1        0.0952
     24 N         145.0196  142.4121  163.4042 N.am    1  UNL1       -0.2777
     25 C         146.0130  141.4725  164.0210 C.3     1  UNL1        0.1148
     26 C         144.3172  143.4266  164.2571 C.2     1  UNL1        0.2274
     27 O         144.6081  143.5014  165.7267 O.2     1  UNL1       -0.2748
     28 C         143.3239  144.3662  163.6403 C.3     1  UNL1        0.1047
     29 O         137.2987  140.2546  161.6457 O.3     1  UNL1       -0.4723
     30 C         137.7057  138.8363  161.3757 C.3     1  UNL1        0.2070
     31 C         138.7563  138.1831  162.2240 C.3     1  UNL1        0.0646
     32 C         140.1310  137.9525  161.6699 C.3     1  UNL1        0.0759
     33 N         140.6727  138.8601  160.6057 N.3     1  UNL1       -0.2726
     34 C         140.2648  138.8681  159.1622 C.3     1  UNL1        0.0721
     35 C         141.0573  139.9320  158.4624 C.3     1  UNL1        0.0188
     36 C         141.9551  140.5818  159.4734 C.3     1  UNL1        0.0188
     37 C         141.7173  139.9193  160.7980 C.3     1  UNL1        0.0721
@<TRIPOS>BOND
     1    17    18    1
     2    18     1    1
     3     1     2   ar
     4     2     3   ar
     5     3     4   ar
     6     4    19    1
     7    19    21    1
     8    21    22    1
     9    22    23    1
    10    23    24    1
    11    24    25    1
    12    24    26   am
    13    26    27    2
    14    26    28    1
    15     4     5   ar
    16     5     6   ar
    17     6    11    1
    18    11    12   ar
    19    12    13   ar
    20    13    14   ar
    21    14    15    1
    22    14    16   ar
    23     6     7   ar
    24     7     8   ar
    25     8     9   ar
    26     9    10   ar
    27    10    29    1
    28    29    30    1
    29    30    31    1
    30    31    32    1
    31    32    33    1
    32    33    34    1
    33    34    35    1
    34    35    36    1
    35    36    37    1
    36    10     1   ar
    37    37    33    1
    38     8     3   ar
    39    28    21    1
    40    16    11   ar
    41    19    20    1
@<TRIPOS>MOLECULE
*****
 37 41 0 0 0
SMALL
GASTEIGER

@<TRIPOS>ATOM
      1 C         141.2078  139.8300  161.3271 C.ar    1  UNL1        0.1725
      2 C         141.9139  141.0386  161.8663 C.ar    1  UNL1        0.0428
      3 C         141.9954  141.2609  163.3475 C.ar    1  UNL1        0.0340
      4 C         142.7015  142.4696  163.8867 C.ar    1  UNL1        0.0477
      5 C         142.7830  142.6920  165.3679 C.ar    1  UNL1        0.0365
      6 C         142.1583  141.7057  166.3098 C.ar    1  UNL1        0.1169
      7 N         141.4522  140.4972  165.7706 N.ar    1  UNL1       -0.2421
      8 C         141.3707  140.2748  164.2894 C.ar    1  UNL1        0.0858
      9 C         140.6647  139.0663  163.7502 C.ar    1  UNL1        0.0592
     10 C         140.5832  138.8439  162.2690 C.ar    1  UNL1        0.1737
     11 C         142.2398  141.9281  167.7910 C.ar    1  UNL1        0.1624
     12 C         143.4409  142.4183  168.5443 C.ar    1  UNL1        0.0418
     13 C         143.0778  142.4925  169.9978 C.ar    1  UNL1        0.0361
     14 C         141.6525  142.0482  170.1429 C.ar    1  UNL1        0.1234
     15 C         140.8807  141.9670  171.4265 C.3     1  UNL1        0.0725
     16 O         141.1346  141.6994  168.7791 O.2     1  UNL1       -0.4562
     17 C         142.0596  138.6403  159.1803 C.3     1  UNL1        0.2526
     18 O         141.1263  139.6076  159.8459 O.3     1  UNL1       -0.4684
     19 N         143.3261  143.4557  162.9447 N.pl3   1  UNL1       -0.3334
     20 H         144.2622  143.7328  163.0718 H       1  UNL1        0.1468
     21 C         142.5245  144.0197  161.8092 C.3     1  UNL1        0.0798
     22 C         142.8965  143.6926  160.3934 C.3     1  UNL1        0.0415
     23 C         142.0949  144.2565  159.2579 C.3     1  UNL1        0.0952
     24 N         140.9213  145.1475  159.5382 N.am    1  UNL1       -0.2777
     25 C         140.1196  145.7114  158.4027 C.3     1  UNL1        0.1148
     26 C         140.5492  145.4745  160.9540 C.2     1  UNL1        0.2274
     27 O         139.3755  146.3656  161.2343 O.2     1  UNL1       -0.2748
     28 C         141.3508  144.9106  162.0895 C.3     1  UNL1        0.1047
     29 O         139.8770  137.6352  161.7298 O.3     1  UNL1       -0.4723
     30 C         138.5442  137.7830  161.0577 C.3     1  UNL1        0.2070
     31 C         137.5466  138.7741  161.5799 C.3     1  UNL1        0.0646
     32 C         137.5711  140.1917  161.0905 C.3     1  UNL1        0.0759
     33 N         137.6966  141.3211  162.0696 N.3     1  UNL1       -0.2726
     34 C         137.9657  142.7570  161.7295 C.3     1  UNL1        0.0721
     35 C         138.0103  143.5362  163.0105 C.3     1  UNL1        0.0188
     36 C         137.7688  142.5818  164.1423 C.3     1  UNL1        0.0188
     37 C         137.5749  141.2128  163.5608 C.3     1  UNL1        0.0721
@<TRIPOS>BOND
     1    17    18    1
     2    18     1    1
     3     1     2   ar
     4     2     3   ar
     5     3     4   ar
     6     4    19    1
     7    19    21    1
     8    21    22    1
     9    22    23    1
    10    23    24    1
    11    24    25    1
    12    24    26   am
    13    26    27    2
    14    26    28    1
    15     4     5   ar
    16     5     6   ar
    17     6    11    1
    18    11    12   ar
    19    12    13   ar
    20    13    14   ar
    21    14    15    1
    22    14    16   ar
    23     6     7   ar
    24     7     8   ar
    25     8     9   ar
    26     9    10   ar
    27    10    29    1
    28    29    30    1
    29    30    31    1
    30    31    32    1
    31    32    33    1
    32    33    34    1
    33    34    35    1
    34    35    36    1
    35    36    37    1
    36    10     1   ar
    37    37    33    1
    38     8     3   ar
    39    28    21    1
    40    16    11   ar
    41    19    20    1
@<TRIPOS>MOLECULE
*****
 37 41 0 0 0
SMALL
GASTEIGER

@<TRIPOS>ATOM
      1 C         144.7702  140.8554  163.1713 C.ar    1  UNL1        0.1725
      2 C         144.5957  141.3091  161.7523 C.ar    1  UNL1        0.0428
      3 C         144.0155  140.3749  160.7322 C.ar    1  UNL1        0.0340
      4 C         143.8409  140.8287  159.3131 C.ar    1  UNL1        0.0477
      5 C         143.2607  139.8945  158.2930 C.ar    1  UNL1        0.0365
      6 C         142.8551  138.5065  158.6920 C.ar    1  UNL1        0.1169
      7 N         143.0296  138.0528  160.1110 N.ar    1  UNL1       -0.2421
      8 C         143.6098  138.9870  161.1311 C.ar    1  UNL1        0.0858
      9 C         143.7844  138.5333  162.5501 C.ar    1  UNL1        0.0592
     10 C         144.3646  139.4675  163.5702 C.ar    1  UNL1        0.1737
     11 C         142.2749  137.5723  157.6718 C.ar    1  UNL1        0.1624
     12 C         141.0245  137.8025  156.8758 C.ar    1  UNL1        0.0418
     13 C         140.8201  136.6163  155.9806 C.ar    1  UNL1        0.0361
     14 C         141.9441  135.6531  156.2234 C.ar    1  UNL1        0.1234
     15 C         142.1353  134.3313  155.5408 C.3     1  UNL1        0.0725
     16 O         142.8432  136.2440  157.2686 O.2     1  UNL1       -0.4562
     17 C         144.5291  142.9290  164.7179 C.3     1  UNL1        0.2526
     18 O         145.3504  141.7896  164.1915 O.3     1  UNL1       -0.4684
     19 N         144.2466  142.2166  158.9142 N.pl3   1  UNL1       -0.3334
     20 H         145.1985  142.4676  158.9045 H       1  UNL1        0.1468
     21 C         143.2019  143.2221  158.5301 C.3     1  UNL1        0.0798
     22 C         142.9998  143.5798  157.0874 C.3     1  UNL1        0.0415
     23 C         141.9551  144.5853  156.7033 C.3     1  UNL1        0.0952
     24 N         141.1125  145.2331  157.7618 N.am    1  UNL1       -0.2777
     25 C         140.0678  146.2387  157.3776 C.3     1  UNL1        0.1148
     26 C         141.3146  144.8754  159.2044 C.2     1  UNL1        0.2274
     27 O         140.4720  145.5233  160.2629 O.2     1  UNL1       -0.2748
     28 C         142.3593  143.8699  159.5886 C.3     1  UNL1        0.1047
     29 O         144.5391  139.0138  164.9893 O.3     1  UNL1       -0.4723
     30 C         143.3844  138.4074  165.7302 C.3     1  UNL1        0.2070
     31 C         143.0857  138.8382  167.1357 C.3     1  UNL1        0.0646
     32 C         142.3167  140.1016  167.3854 C.3     1  UNL1        0.0759
     33 N         141.2763  140.1454  168.4651 N.3     1  UNL1       -0.2726
     34 C         139.8177  140.4374  168.2726 C.3     1  UNL1        0.0721
     35 C         139.1518  140.3773  169.6153 C.3     1  UNL1        0.0188
     36 C         140.1989  140.0480  170.6377 C.3     1  UNL1        0.0188
     37 C         141.5119  139.9047  169.9268 C.3     1  UNL1        0.0721
@<TRIPOS>BOND
     1    17    18    1
     2    18     1    1
     3     1     2   ar
     4     2     3   ar
     5     3     4   ar
     6     4    19    1
     7    19    21    1
     8    21    22    1
     9    22    23    1
    10    23    24    1
    11    24    25    1
    12    24    26   am
    13    26    27    2
    14    26    28    1
    15     4     5   ar
    16     5     6   ar
    17     6    11    1
    18    11    12   ar
    19    12    13   ar
    20    13    14   ar
    21    14    15    1
    22    14    16   ar
    23     6     7   ar
    24     7     8   ar
    25     8     9   ar
    26     9    10   ar
    27    10    29    1
    28    29    30    1
    29    30    31    1
    30    31    32    1
    31    32    33    1
    32    33    34    1
    33    34    35    1
    34    35    36    1
    35    36    37    1
    36    10     1   ar
    37    37    33    1
    38     8     3   ar
    39    28    21    1
    40    16    11   ar
    41    19    20    1
@<TRIPOS>MOLECULE
*****
 37 41 0 0 0
SMALL
GASTEIGER

@<TRIPOS>ATOM
      1 C         144.5289  141.8286  161.4338 C.ar    1  UNL1        0.1725
      2 C         144.2188  141.9087  159.9685 C.ar    1  UNL1        0.0428
      3 C         143.7806  140.6810  159.2263 C.ar    1  UNL1        0.0340
      4 C         143.4705  140.7612  157.7609 C.ar    1  UNL1        0.0477
      5 C         143.0324  139.5335  157.0187 C.ar    1  UNL1        0.0365
      6 C         142.9043  138.2256  157.7421 C.ar    1  UNL1        0.1169
      7 N         143.2144  138.1455  159.2074 N.ar    1  UNL1       -0.2421
      8 C         143.6526  139.3732  159.9496 C.ar    1  UNL1        0.0858
      9 C         143.9627  139.2930  161.4149 C.ar    1  UNL1        0.0592
     10 C         144.4008  140.5207  162.1571 C.ar    1  UNL1        0.1737
     11 C         142.4662  136.9979  156.9999 C.ar    1  UNL1        0.1624
     12 C         141.4076  136.9400  155.9387 C.ar    1  UNL1        0.0418
     13 C         141.2969  135.5188  155.4716 C.ar    1  UNL1        0.0361
     14 C         142.2870  134.6985  156.2441 C.ar    1  UNL1        0.1234
     15 C         142.5144  133.2231  156.0978 C.3     1  UNL1        0.0725
     16 O         143.0096  135.6126  157.1886 O.2     1  UNL1       -0.4562
     17 C         143.9439  143.9850  162.7596 C.3     1  UNL1        0.2526
     18 O         144.9670  143.0563  162.1760 O.3     1  UNL1       -0.4684
     19 N         143.5986  142.0690  157.0376 N.pl3   1  UNL1       -0.3334
     20 H         142.8878  142.7459  157.1148 H       1  UNL1        0.1468
     21 C         144.8096  142.3457  156.1968 C.3     1  UNL1        0.0798
     22 C         144.6496  142.8777  154.8035 C.3     1  UNL1        0.0415
     23 C         145.8606  143.1543  153.9626 C.3     1  UNL1        0.0952
     24 N         147.2315  142.8990  154.5151 N.am    1  UNL1       -0.2777
     25 C         148.4425  143.1756  153.6743 C.3     1  UNL1        0.1148
     26 C         147.3915  142.3669  155.9084 C.2     1  UNL1        0.2274
     27 O         148.7625  142.1116  156.4609 O.2     1  UNL1       -0.2748
     28 C         146.1806  142.0903  156.7493 C.3     1  UNL1        0.1047
     29 O         144.7109  140.4406  163.6225 O.3     1  UNL1       -0.4723
     30 C         143.5976  140.3028  164.6183 C.3     1  UNL1        0.2070
     31 C         143.2272  138.9486  165.1465 C.3     1  UNL1        0.0646
     32 C         141.9526  138.2936  164.7034 C.3     1  UNL1        0.0759
     33 N         140.6627  138.6169  165.3973 N.3     1  UNL1       -0.2726
     34 C         140.4859  139.5997  166.5166 C.3     1  UNL1        0.0721
     35 C         139.0370  139.6044  166.9048 C.3     1  UNL1        0.0188
     36 C         138.3183  138.6245  166.0254 C.3     1  UNL1        0.0188
     37 C         139.3230  138.0142  165.0937 C.3     1  UNL1        0.0721
@<TRIPOS>BOND
     1    17    18    1
     2    18     1    1
     3     1     2   ar
     4     2     3   ar
     5     3     4   ar
     6     4    19    1
     7    19    21    1
     8    21    22    1
     9    22    23    1
    10    23    24    1
    11    24    25    1
    12    24    26   am
    13    26    27    2
    14    26    28    1
    15     4     5   ar
    16     5     6   ar
    17     6    11    1
    18    11    12   ar
    19    12    13   ar
    20    13    14   ar
    21    14    15    1
    22    14    16   ar
    23     6     7   ar
    24     7     8   ar
    25     8     9   ar
    26     9    10   ar
    27    10    29    1
    28    29    30    1
    29    30    31    1
    30    31    32    1
    31    32    33    1
    32    33    34    1
    33    34    35    1
    34    35    36    1
    35    36    37    1
    36    10     1   ar
    37    37    33    1
    38     8     3   ar
    39    28    21    1
    40    16    11   ar
    41    19    20    1
