@<TRIPOS>MOLECULE
*****
 32 35 0 0 0
SMALL
GASTEIGER

@<TRIPOS>ATOM
      1 N         144.2960  139.9118  163.9120 N.3     1  UNL1       -0.2700
      2 C         143.4487  139.5133  162.7402 C.3     1  UNL1        0.0897
      3 C         142.2771  138.5979  162.9386 C.3     1  UNL1        0.0897
      4 N         141.9528  138.0812  164.3090 N.3     1  UNL1       -0.2677
      5 C         142.8001  138.4797  165.4809 C.3     1  UNL1        0.0897
      6 C         143.9717  139.3950  165.2823 C.3     1  UNL1        0.0897
      7 C         145.4677  140.8271  163.7136 C.3     1  UNL1        0.0769
      8 C         145.3443  142.2856  164.0419 C.3     1  UNL1        0.0438
      9 C         142.7660  144.1094  161.6386 C.ar    1  UNL1        0.1479
     10 C         143.9604  143.3333  162.1088 C.ar    1  UNL1        0.0334
     11 C         144.1499  143.0617  163.5718 C.ar    1  UNL1       -0.0177
     12 C         143.1450  143.5662  164.5646 C.ar    1  UNL1       -0.0033
     13 C         141.9507  144.3424  164.0944 C.ar    1  UNL1        0.0130
     14 C         141.7612  144.6139  162.6314 C.ar    1  UNL1        0.1023
     15 C         142.3286  143.2450  159.2279 C.3     1  UNL1        0.2525
     16 O         142.5765  144.3810  160.1756 O.3     1  UNL1       -0.4708
     17 C         140.5667  145.3901  162.1613 C.1     1  UNL1        0.1035
     18 N         139.3724  146.1662  161.6911 N.1     1  UNL1       -0.1907
     19 C         140.7811  137.1659  164.5075 C.3     1  UNL1        0.1125
     20 C         139.4701  137.7181  164.9831 C.3     1  UNL1        0.1988
     21 F         138.4334  136.7990  165.5581 F       1  UNL1       -0.2309
     22 C         139.1957  139.1896  164.8837 C.ar    1  UNL1        0.0071
     23 C         139.5875  140.1030  166.0070 C.ar    1  UNL1       -0.0017
     24 C         139.3132  141.5744  165.9077 C.ar    1  UNL1        0.0060
     25 C         138.6470  142.1322  164.6850 C.ar    1  UNL1        0.0748
     26 C         138.2551  141.2187  163.5616 C.ar    1  UNL1        0.0234
     27 C         138.5295  139.7473  163.6610 C.ar    1  UNL1       -0.0235
     28 C         138.1377  138.8337  162.5376 C.3     1  UNL1        0.0306
     29 C         137.6176  142.0505  162.4885 C.3     1  UNL1        0.2352
     30 O         137.6154  143.4782  162.9487 O.3     1  UNL1       -0.4404
     31 C         138.2516  143.5287  164.3062 C.2     1  UNL1        0.3413
     32 O         138.4564  144.7595  165.1386 O.2     1  UNL1       -0.2449
@<TRIPOS>BOND
     1    15    16    1
     2    16     9    1
     3     9    10   ar
     4    10    11   ar
     5    11     8    1
     6     8     7    1
     7     7     1    1
     8     1     2    1
     9     2     3    1
    10     3     4    1
    11     4    19    1
    12    19    20    1
    13    20    21    1
    14    20    22    1
    15    22    23   ar
    16    23    24   ar
    17    24    25   ar
    18    25    26   ar
    19    26    27   ar
    20    27    28    1
    21    26    29    1
    22    29    30    1
    23    30    31    1
    24    31    32    2
    25     4     5    1
    26     5     6    1
    27    11    12   ar
    28    12    13   ar
    29    13    14   ar
    30    14    17    1
    31    17    18    3
    32    14     9   ar
    33     6     1    1
    34    27    22   ar
    35    31    25    1
@<TRIPOS>MOLECULE
*****
 32 35 0 0 0
SMALL
GASTEIGER

@<TRIPOS>ATOM
      1 N         143.9375  139.1016  162.0126 N.3     1  UNL1       -0.2700
      2 C         144.3746  138.9941  163.4435 C.3     1  UNL1        0.0897
      3 C         144.9046  140.2015  164.1586 C.3     1  UNL1        0.0897
      4 N         144.9974  141.5164  163.4427 N.3     1  UNL1       -0.2677
      5 C         144.5602  141.6240  162.0118 C.3     1  UNL1        0.0897
      6 C         144.0303  140.4165  161.2968 C.3     1  UNL1        0.0897
      7 C         143.4075  137.8942  161.2976 C.3     1  UNL1        0.0769
      8 C         141.9279  137.7070  161.1367 C.3     1  UNL1        0.0438
      9 C         138.9118  138.9521  163.3955 C.ar    1  UNL1        0.1479
     10 C         139.8222  138.7798  162.2160 C.ar    1  UNL1        0.0334
     11 C         141.0176  137.8792  162.3163 C.ar    1  UNL1       -0.0177
     12 C         141.3024  137.1508  163.5963 C.ar    1  UNL1       -0.0033
     13 C         140.3920  137.3231  164.7758 C.ar    1  UNL1        0.0130
     14 C         139.1967  138.2237  164.6755 C.ar    1  UNL1        0.1023
     15 C         137.6188  140.8477  162.1770 C.3     1  UNL1        0.2525
     16 O         137.7164  139.8527  163.2952 O.3     1  UNL1       -0.4708
     17 C         138.2862  138.3959  165.8552 C.1     1  UNL1        0.1035
     18 N         137.3759  138.5681  167.0348 N.1     1  UNL1       -0.1907
     19 C         145.5273  142.7238  164.1577 C.3     1  UNL1        0.1125
     20 C         144.6137  143.5491  165.0145 C.3     1  UNL1        0.1988
     21 F         145.1325  144.1810  166.2721 F       1  UNL1       -0.2309
     22 C         143.1811  143.7425  164.6138 C.ar    1  UNL1        0.0071
     23 C         142.8301  144.7235  163.5348 C.ar    1  UNL1       -0.0017
     24 C         141.3977  144.9169  163.1340 C.ar    1  UNL1        0.0060
     25 C         140.3162  144.1293  163.8123 C.ar    1  UNL1        0.0748
     26 C         140.6672  143.1483  164.8914 C.ar    1  UNL1        0.0234
     27 C         142.0997  142.9549  165.2922 C.ar    1  UNL1       -0.0235
     28 C         142.4508  141.9738  166.3712 C.3     1  UNL1        0.0306
     29 C         139.3954  142.5188  165.3773 C.3     1  UNL1        0.2352
     30 O         138.2583  143.1108  164.5985 O.3     1  UNL1       -0.4404
     31 C         138.8274  144.1061  163.6313 C.2     1  UNL1        0.3413
     32 O         138.0450  144.9331  162.6546 O.2     1  UNL1       -0.2449
@<TRIPOS>BOND
     1    15    16    1
     2    16     9    1
     3     9    10   ar
     4    10    11   ar
     5    11     8    1
     6     8     7    1
     7     7     1    1
     8     1     2    1
     9     2     3    1
    10     3     4    1
    11     4    19    1
    12    19    20    1
    13    20    21    1
    14    20    22    1
    15    22    23   ar
    16    23    24   ar
    17    24    25   ar
    18    25    26   ar
    19    26    27   ar
    20    27    28    1
    21    26    29    1
    22    29    30    1
    23    30    31    1
    24    31    32    2
    25     4     5    1
    26     5     6    1
    27    11    12   ar
    28    12    13   ar
    29    13    14   ar
    30    14    17    1
    31    17    18    3
    32    14     9   ar
    33     6     1    1
    34    27    22   ar
    35    31    25    1
@<TRIPOS>MOLECULE
*****
 32 35 0 0 0
SMALL
GASTEIGER

@<TRIPOS>ATOM
      1 N         144.3327  140.1384  163.9023 N.3     1  UNL1       -0.2700
      2 C         143.6308  140.1147  165.2277 C.3     1  UNL1        0.0897
      3 C         142.5204  139.1360  165.4710 C.3     1  UNL1        0.0897
      4 N         142.1120  138.1810  164.3887 N.3     1  UNL1       -0.2677
      5 C         142.8139  138.2047  163.0633 C.3     1  UNL1        0.0897
      6 C         143.9243  139.1834  162.8201 C.3     1  UNL1        0.0897
      7 C         145.4431  141.1171  163.6591 C.3     1  UNL1        0.0769
      8 C         145.2557  142.5650  164.0035 C.3     1  UNL1        0.0438
      9 C         142.4881  143.9339  161.5105 C.ar    1  UNL1        0.1479
     10 C         143.6776  143.1860  162.0354 C.ar    1  UNL1        0.0334
     11 C         144.0662  143.3129  163.4787 C.ar    1  UNL1       -0.0177
     12 C         143.2651  144.1875  164.3970 C.ar    1  UNL1       -0.0033
     13 C         142.0756  144.9354  163.8720 C.ar    1  UNL1        0.0130
     14 C         141.6870  144.8086  162.4288 C.ar    1  UNL1        0.1023
     15 C         141.3657  142.5881  159.5924 C.3     1  UNL1        0.2525
     16 O         142.0994  143.8072  160.0672 O.3     1  UNL1       -0.4708
     17 C         140.4974  145.5565  161.9039 C.1     1  UNL1        0.1035
     18 N         139.3077  146.3044  161.3791 N.1     1  UNL1       -0.1907
     19 C         141.0016  137.2023  164.6319 C.3     1  UNL1        0.1125
     20 C         139.5748  137.6643  164.6020 C.3     1  UNL1        0.1988
     21 F         138.5221  136.8964  165.3452 F       1  UNL1       -0.2309
     22 C         139.2006  138.8942  163.8290 C.ar    1  UNL1        0.0071
     23 C         139.2378  138.8778  162.3296 C.ar    1  UNL1       -0.0017
     24 C         138.8636  140.1076  161.5566 C.ar    1  UNL1        0.0060
     25 C         138.4524  141.3538  162.2831 C.ar    1  UNL1        0.0748
     26 C         138.4152  141.3703  163.7825 C.ar    1  UNL1        0.0234
     27 C         138.7893  140.1404  164.5555 C.ar    1  UNL1       -0.0235
     28 C         138.7522  140.1568  166.0550 C.3     1  UNL1        0.0306
     29 C         137.9725  142.7349  164.2204 C.3     1  UNL1        0.2352
     30 O         137.7360  143.5619  162.9915 O.3     1  UNL1       -0.4404
     31 C         138.0326  142.7084  161.7942 C.2     1  UNL1        0.3413
     32 O         137.9278  143.1346  160.3598 O.2     1  UNL1       -0.2449
@<TRIPOS>BOND
     1    15    16    1
     2    16     9    1
     3     9    10   ar
     4    10    11   ar
     5    11     8    1
     6     8     7    1
     7     7     1    1
     8     1     2    1
     9     2     3    1
    10     3     4    1
    11     4    19    1
    12    19    20    1
    13    20    21    1
    14    20    22    1
    15    22    23   ar
    16    23    24   ar
    17    24    25   ar
    18    25    26   ar
    19    26    27   ar
    20    27    28    1
    21    26    29    1
    22    29    30    1
    23    30    31    1
    24    31    32    2
    25     4     5    1
    26     5     6    1
    27    11    12   ar
    28    12    13   ar
    29    13    14   ar
    30    14    17    1
    31    17    18    3
    32    14     9   ar
    33     6     1    1
    34    27    22   ar
    35    31    25    1
@<TRIPOS>MOLECULE
*****
 32 35 0 0 0
SMALL
GASTEIGER

@<TRIPOS>ATOM
      1 N         137.7688  140.3949  161.8258 N.3     1  UNL1       -0.2700
      2 C         138.1704  141.3511  160.7421 C.3     1  UNL1        0.0897
      3 C         138.3776  142.8021  161.0610 C.3     1  UNL1        0.0897
      4 N         138.1833  143.2967  162.4638 N.3     1  UNL1       -0.2677
      5 C         137.7818  142.3405  163.5475 C.3     1  UNL1        0.0897
      6 C         137.5745  140.8896  163.2284 C.3     1  UNL1        0.0897
      7 C         137.5616  138.9439  161.5068 C.3     1  UNL1        0.0769
      8 C         138.7412  138.0234  161.4004 C.3     1  UNL1        0.0438
      9 C         142.2803  138.3363  163.1684 C.ar    1  UNL1        0.1479
     10 C         141.2235  138.3274  162.1039 C.ar    1  UNL1        0.0334
     11 C         139.7979  138.0322  162.4649 C.ar    1  UNL1       -0.0177
     12 C         139.4290  137.7459  163.8903 C.ar    1  UNL1       -0.0033
     13 C         140.4857  137.7548  164.9548 C.ar    1  UNL1        0.0130
     14 C         141.9114  138.0500  164.5938 C.ar    1  UNL1        0.1023
     15 C         144.0806  138.8849  161.3772 C.3     1  UNL1        0.2525
     16 O         143.7061  138.6315  162.8075 O.3     1  UNL1       -0.4708
     17 C         142.9682  138.0589  165.6584 C.1     1  UNL1        0.1035
     18 N         144.0249  138.0679  166.7230 N.1     1  UNL1       -0.1907
     19 C         138.3905  144.7477  162.7828 C.3     1  UNL1        0.1125
     20 C         139.7023  145.4045  162.4697 C.3     1  UNL1        0.1988
     21 F         139.7307  146.8055  161.9346 F       1  UNL1       -0.2309
     22 C         140.9856  144.6602  162.6918 C.ar    1  UNL1        0.0071
     23 C         141.4435  144.3545  164.0870 C.ar    1  UNL1       -0.0017
     24 C         142.7268  143.6103  164.3090 C.ar    1  UNL1        0.0060
     25 C         143.5522  143.1718  163.1358 C.ar    1  UNL1        0.0748
     26 C         143.0942  143.4775  161.7405 C.ar    1  UNL1        0.0234
     27 C         141.8110  144.2217  161.5184 C.ar    1  UNL1       -0.0235
     28 C         141.3529  144.5275  160.1231 C.3     1  UNL1        0.0306
     29 C         144.1105  142.9226  160.7870 C.3     1  UNL1        0.2352
     30 O         145.1966  142.2739  161.5930 O.3     1  UNL1       -0.4404
     31 C         144.8515  142.4279  163.0446 C.2     1  UNL1        0.3413
     32 O         145.6633  141.9261  164.2019 O.2     1  UNL1       -0.2449
@<TRIPOS>BOND
     1    15    16    1
     2    16     9    1
     3     9    10   ar
     4    10    11   ar
     5    11     8    1
     6     8     7    1
     7     7     1    1
     8     1     2    1
     9     2     3    1
    10     3     4    1
    11     4    19    1
    12    19    20    1
    13    20    21    1
    14    20    22    1
    15    22    23   ar
    16    23    24   ar
    17    24    25   ar
    18    25    26   ar
    19    26    27   ar
    20    27    28    1
    21    26    29    1
    22    29    30    1
    23    30    31    1
    24    31    32    2
    25     4     5    1
    26     5     6    1
    27    11    12   ar
    28    12    13   ar
    29    13    14   ar
    30    14    17    1
    31    17    18    3
    32    14     9   ar
    33     6     1    1
    34    27    22   ar
    35    31    25    1
@<TRIPOS>MOLECULE
*****
 32 35 0 0 0
SMALL
GASTEIGER

@<TRIPOS>ATOM
      1 N         137.8144  140.2332  161.8575 N.3     1  UNL1       -0.2700
      2 C         138.1085  141.4444  161.0231 C.3     1  UNL1        0.0897
      3 C         138.1175  142.8054  161.6536 C.3     1  UNL1        0.0897
      4 N         137.8325  142.9551  163.1187 N.3     1  UNL1       -0.2677
      5 C         137.5384  141.7438  163.9532 C.3     1  UNL1        0.0897
      6 C         137.5294  140.3829  163.3226 C.3     1  UNL1        0.0897
      7 C         137.8054  138.8722  161.2270 C.3     1  UNL1        0.0769
      8 C         139.0825  138.0954  161.1008 C.3     1  UNL1        0.0438
      9 C         142.4611  138.5101  163.1410 C.ar    1  UNL1        0.1479
     10 C         141.4785  138.5270  162.0078 C.ar    1  UNL1        0.0334
     11 C         140.0650  138.0785  162.2340 C.ar    1  UNL1       -0.0177
     12 C         139.6343  137.6132  163.5934 C.ar    1  UNL1       -0.0033
     13 C         140.6170  137.5963  164.7265 C.ar    1  UNL1        0.0130
     14 C         142.0304  138.0447  164.5003 C.ar    1  UNL1        0.1023
     15 C         144.2212  139.7591  161.6946 C.3     1  UNL1        0.2525
     16 O         143.8746  138.9585  162.9148 O.3     1  UNL1       -0.4708
     17 C         143.0130  138.0278  165.6336 C.1     1  UNL1        0.1035
     18 N         143.9955  138.0108  166.7669 N.1     1  UNL1       -0.1907
     19 C         137.8415  144.3161  163.7493 C.3     1  UNL1        0.1125
     20 C         138.9316  144.6907  164.7091 C.3     1  UNL1        0.1988
     21 F         138.6336  145.5987  165.8652 F       1  UNL1       -0.2309
     22 C         140.3198  144.1573  164.5127 C.ar    1  UNL1        0.0071
     23 C         141.1887  144.7107  163.4225 C.ar    1  UNL1       -0.0017
     24 C         142.5768  144.1773  163.2261 C.ar    1  UNL1        0.0060
     25 C         143.0961  143.0906  164.1201 C.ar    1  UNL1        0.0748
     26 C         142.2272  142.5371  165.2105 C.ar    1  UNL1        0.0234
     27 C         140.8391  143.0705  165.4068 C.ar    1  UNL1       -0.0235
     28 C         139.9702  142.5171  166.4971 C.3     1  UNL1        0.0306
     29 C         143.0061  141.4765  165.9305 C.3     1  UNL1        0.2352
     30 O         144.3563  141.3744  165.2852 O.3     1  UNL1       -0.4404
     31 C         144.4120  142.3720  164.1663 C.2     1  UNL1        0.3413
     32 O         145.5786  142.6092  163.2538 O.2     1  UNL1       -0.2449
@<TRIPOS>BOND
     1    15    16    1
     2    16     9    1
     3     9    10   ar
     4    10    11   ar
     5    11     8    1
     6     8     7    1
     7     7     1    1
     8     1     2    1
     9     2     3    1
    10     3     4    1
    11     4    19    1
    12    19    20    1
    13    20    21    1
    14    20    22    1
    15    22    23   ar
    16    23    24   ar
    17    24    25   ar
    18    25    26   ar
    19    26    27   ar
    20    27    28    1
    21    26    29    1
    22    29    30    1
    23    30    31    1
    24    31    32    2
    25     4     5    1
    26     5     6    1
    27    11    12   ar
    28    12    13   ar
    29    13    14   ar
    30    14    17    1
    31    17    18    3
    32    14     9   ar
    33     6     1    1
    34    27    22   ar
    35    31    25    1
@<TRIPOS>MOLECULE
*****
 32 35 0 0 0
SMALL
GASTEIGER

@<TRIPOS>ATOM
      1 N         140.2501  144.6775  162.3468 N.3     1  UNL1       -0.2700
      2 C         140.7755  143.5836  161.4652 C.3     1  UNL1        0.0897
      3 C         142.2256  143.2044  161.5240 C.3     1  UNL1        0.0897
      4 N         143.1502  143.9192  162.4643 N.3     1  UNL1       -0.2677
      5 C         142.6248  145.0132  163.3459 C.3     1  UNL1        0.0897
      6 C         141.1747  145.3923  163.2871 C.3     1  UNL1        0.0897
      7 C         138.8000  145.0568  162.2880 C.3     1  UNL1        0.0769
      8 C         137.8079  144.3681  163.1778 C.3     1  UNL1        0.0438
      9 C         137.8923  140.4029  163.0359 C.ar    1  UNL1        0.1479
     10 C         137.6738  141.8313  162.6334 C.ar    1  UNL1        0.0334
     11 C         138.0265  142.9398  163.5804 C.ar    1  UNL1       -0.0177
     12 C         138.5979  142.6199  164.9299 C.ar    1  UNL1       -0.0033
     13 C         138.8165  141.1916  165.3324 C.ar    1  UNL1        0.0130
     14 C         138.4637  140.0831  164.3854 C.ar    1  UNL1        0.1023
     15 C         138.5301  138.8478  161.0548 C.3     1  UNL1        0.2525
     16 O         137.5396  139.2943  162.0890 O.3     1  UNL1       -0.4708
     17 C         138.6823  138.6547  164.7881 C.1     1  UNL1        0.1035
     18 N         138.9009  137.2264  165.1906 N.1     1  UNL1       -0.1907
     19 C         144.6003  143.5400  162.5230 C.3     1  UNL1        0.1125
     20 C         145.0539  142.4515  163.4501 C.3     1  UNL1        0.1988
     21 F         146.3296  141.7131  163.1724 F       1  UNL1       -0.2309
     22 C         144.2317  142.1015  164.6550 C.ar    1  UNL1        0.0071
     23 C         144.1650  143.0466  165.8178 C.ar    1  UNL1       -0.0017
     24 C         143.3429  142.6966  167.0226 C.ar    1  UNL1        0.0060
     25 C         142.5874  141.4014  167.0645 C.ar    1  UNL1        0.0748
     26 C         142.6540  140.4563  165.9017 C.ar    1  UNL1        0.0234
     27 C         143.4762  140.8063  164.6969 C.ar    1  UNL1       -0.0235
     28 C         143.5429  139.8611  163.5339 C.3     1  UNL1        0.0306
     29 C         141.8084  139.2608  166.2268 C.3     1  UNL1        0.2352
     30 O         141.2191  139.4672  167.5907 O.3     1  UNL1       -0.4404
     31 C         141.7005  140.7901  168.1084 C.2     1  UNL1        0.3413
     32 O         141.3556  141.3954  169.4368 O.2     1  UNL1       -0.2449
@<TRIPOS>BOND
     1    15    16    1
     2    16     9    1
     3     9    10   ar
     4    10    11   ar
     5    11     8    1
     6     8     7    1
     7     7     1    1
     8     1     2    1
     9     2     3    1
    10     3     4    1
    11     4    19    1
    12    19    20    1
    13    20    21    1
    14    20    22    1
    15    22    23   ar
    16    23    24   ar
    17    24    25   ar
    18    25    26   ar
    19    26    27   ar
    20    27    28    1
    21    26    29    1
    22    29    30    1
    23    30    31    1
    24    31    32    2
    25     4     5    1
    26     5     6    1
    27    11    12   ar
    28    12    13   ar
    29    13    14   ar
    30    14    17    1
    31    17    18    3
    32    14     9   ar
    33     6     1    1
    34    27    22   ar
    35    31    25    1
@<TRIPOS>MOLECULE
*****
 32 35 0 0 0
SMALL
GASTEIGER

@<TRIPOS>ATOM
      1 N         138.6409  144.1031  162.9718 N.3     1  UNL1       -0.2700
      2 C         138.4463  142.8552  162.1625 C.3     1  UNL1        0.0897
      3 C         138.2861  141.5322  162.8509 C.3     1  UNL1        0.0897
      4 N         138.3203  141.4571  164.3487 N.3     1  UNL1       -0.2677
      5 C         138.5149  142.7050  165.1580 C.3     1  UNL1        0.0897
      6 C         138.6751  144.0280  164.4695 C.3     1  UNL1        0.0897
      7 C         138.8011  145.4261  162.2834 C.3     1  UNL1        0.0769
      8 C         140.1697  145.9230  161.9226 C.3     1  UNL1        0.0438
      9 C         143.0508  143.2394  161.4261 C.ar    1  UNL1        0.1479
     10 C         141.8476  144.0934  161.1565 C.ar    1  UNL1        0.0334
     11 C         141.3729  145.0690  162.1923 C.ar    1  UNL1       -0.0177
     12 C         142.1015  145.1904  163.4979 C.ar    1  UNL1       -0.0033
     13 C         143.3047  144.3364  163.7675 C.ar    1  UNL1        0.0130
     14 C         143.7794  143.3608  162.7317 C.ar    1  UNL1        0.1023
     15 C         143.9246  142.7505  159.0287 C.3     1  UNL1        0.2525
     16 O         143.5256  142.2638  160.3903 O.3     1  UNL1       -0.4708
     17 C         144.9827  142.5067  163.0014 C.1     1  UNL1        0.1035
     18 N         146.1860  141.6528  163.2712 N.1     1  UNL1       -0.1907
     19 C         138.1601  140.1341  165.0371 C.3     1  UNL1        0.1125
     20 C         139.3373  139.4900  165.7074 C.3     1  UNL1        0.1988
     21 F         139.9291  138.2341  165.1396 F       1  UNL1       -0.2309
     22 C         139.9227  140.1018  166.9457 C.ar    1  UNL1        0.0071
     23 C         139.2128  139.9612  168.2594 C.ar    1  UNL1       -0.0017
     24 C         139.7981  140.5730  169.4975 C.ar    1  UNL1        0.0060
     25 C         141.0935  141.3255  169.4219 C.ar    1  UNL1        0.0748
     26 C         141.8035  141.4662  168.1080 C.ar    1  UNL1        0.0234
     27 C         141.2181  140.8544  166.8699 C.ar    1  UNL1       -0.0235
     28 C         141.9281  140.9950  165.5560 C.3     1  UNL1        0.0306
     29 C         143.0556  142.2588  168.3403 C.3     1  UNL1        0.2352
     30 O         143.1195  142.6079  169.7977 O.3     1  UNL1       -0.4404
     31 C         141.9069  142.0311  170.4661 C.2     1  UNL1        0.3413
     32 O         141.5672  142.1408  171.9231 O.2     1  UNL1       -0.2449
@<TRIPOS>BOND
     1    15    16    1
     2    16     9    1
     3     9    10   ar
     4    10    11   ar
     5    11     8    1
     6     8     7    1
     7     7     1    1
     8     1     2    1
     9     2     3    1
    10     3     4    1
    11     4    19    1
    12    19    20    1
    13    20    21    1
    14    20    22    1
    15    22    23   ar
    16    23    24   ar
    17    24    25   ar
    18    25    26   ar
    19    26    27   ar
    20    27    28    1
    21    26    29    1
    22    29    30    1
    23    30    31    1
    24    31    32    2
    25     4     5    1
    26     5     6    1
    27    11    12   ar
    28    12    13   ar
    29    13    14   ar
    30    14    17    1
    31    17    18    3
    32    14     9   ar
    33     6     1    1
    34    27    22   ar
    35    31    25    1
@<TRIPOS>MOLECULE
*****
 32 35 0 0 0
SMALL
GASTEIGER

@<TRIPOS>ATOM
      1 N         142.7915  143.7107  161.1793 N.3     1  UNL1       -0.2700
      2 C         141.4275  143.5674  160.5720 C.3     1  UNL1        0.0897
      3 C         140.2222  144.0745  161.3070 C.3     1  UNL1        0.0897
      4 N         140.3811  144.7249  162.6493 N.3     1  UNL1       -0.2677
      5 C         141.7452  144.8681  163.2567 C.3     1  UNL1        0.0897
      6 C         142.9503  144.3610  162.5216 C.3     1  UNL1        0.0897
      7 C         143.9968  143.2036  160.4443 C.3     1  UNL1        0.0769
      8 C         144.3205  141.7389  160.4548 C.3     1  UNL1        0.0438
      9 C         143.2430  139.0572  163.1745 C.ar    1  UNL1        0.1479
     10 C         143.2995  139.8286  161.8893 C.ar    1  UNL1        0.0334
     11 C         144.2641  140.9676  161.7400 C.ar    1  UNL1       -0.0177
     12 C         145.1723  141.3351  162.8758 C.ar    1  UNL1       -0.0033
     13 C         145.1159  140.5636  164.1609 C.ar    1  UNL1        0.0130
     14 C         144.1513  139.4247  164.3103 C.ar    1  UNL1        0.1023
     15 C         141.3602  137.5598  162.1933 C.3     1  UNL1        0.2525
     16 O         142.2784  137.9182  163.3240 O.3     1  UNL1       -0.4708
     17 C         144.0949  138.6533  165.5956 C.1     1  UNL1        0.1035
     18 N         144.0385  137.8820  166.8808 N.1     1  UNL1       -0.1907
     19 C         139.1759  145.2320  163.3843 C.3     1  UNL1        0.1125
     20 C         138.6257  144.4589  164.5461 C.3     1  UNL1        0.1988
     21 F         138.0192  145.1847  165.7103 F       1  UNL1       -0.2309
     22 C         138.6819  142.9598  164.5436 C.ar    1  UNL1        0.0071
     23 C         137.7876  142.1773  163.6285 C.ar    1  UNL1       -0.0017
     24 C         137.8438  140.6784  163.6260 C.ar    1  UNL1        0.0060
     25 C         138.7945  139.9620  164.5386 C.ar    1  UNL1        0.0748
     26 C         139.6889  140.7446  165.4538 C.ar    1  UNL1        0.0234
     27 C         139.6327  142.2435  165.4563 C.ar    1  UNL1       -0.0235
     28 C         140.5271  143.0262  166.3715 C.3     1  UNL1        0.0306
     29 C         140.5182  139.7700  166.2364 C.3     1  UNL1        0.2352
     30 O         140.1363  138.3851  165.8049 O.3     1  UNL1       -0.4404
     31 C         139.0710  138.5038  164.7556 C.2     1  UNL1        0.3413
     32 O         138.4000  137.3642  164.0477 O.2     1  UNL1       -0.2449
@<TRIPOS>BOND
     1    15    16    1
     2    16     9    1
     3     9    10   ar
     4    10    11   ar
     5    11     8    1
     6     8     7    1
     7     7     1    1
     8     1     2    1
     9     2     3    1
    10     3     4    1
    11     4    19    1
    12    19    20    1
    13    20    21    1
    14    20    22    1
    15    22    23   ar
    16    23    24   ar
    17    24    25   ar
    18    25    26   ar
    19    26    27   ar
    20    27    28    1
    21    26    29    1
    22    29    30    1
    23    30    31    1
    24    31    32    2
    25     4     5    1
    26     5     6    1
    27    11    12   ar
    28    12    13   ar
    29    13    14   ar
    30    14    17    1
    31    17    18    3
    32    14     9   ar
    33     6     1    1
    34    27    22   ar
    35    31    25    1
@<TRIPOS>MOLECULE
*****
 32 35 0 0 0
SMALL
GASTEIGER

@<TRIPOS>ATOM
      1 N         139.2743  142.7424  160.7358 N.3     1  UNL1       -0.2700
      2 C         139.9288  141.3933  160.6977 C.3     1  UNL1        0.0897
      3 C         139.5256  140.3361  161.6825 C.3     1  UNL1        0.0897
      4 N         138.4680  140.6281  162.7054 N.3     1  UNL1       -0.2677
      5 C         137.8135  141.9772  162.7435 C.3     1  UNL1        0.0897
      6 C         138.2167  143.0344  161.7586 C.3     1  UNL1        0.0897
      7 C         139.6774  143.7996  159.7510 C.3     1  UNL1        0.0769
      8 C         140.5911  144.9109  160.1755 C.3     1  UNL1        0.0438
      9 C         143.6431  143.6879  162.3979 C.ar    1  UNL1        0.1479
     10 C         142.7315  143.8744  161.2214 C.ar    1  UNL1        0.0334
     11 C         141.5025  144.7244  161.3521 C.ar    1  UNL1       -0.0177
     12 C         141.1851  145.3878  162.6594 C.ar    1  UNL1       -0.0033
     13 C         142.0966  145.2013  163.8360 C.ar    1  UNL1        0.0130
     14 C         143.3256  144.3513  163.7052 C.ar    1  UNL1        0.1023
     15 C         144.7701  141.3470  162.3971 C.3     1  UNL1        0.2525
     16 O         144.8721  142.8379  162.2672 O.3     1  UNL1       -0.4708
     17 C         144.2371  144.1648  164.8819 C.1     1  UNL1        0.1035
     18 N         145.1486  143.9782  166.0584 N.1     1  UNL1       -0.1907
     19 C         138.0649  139.5709  163.6901 C.3     1  UNL1        0.1125
     20 C         139.0802  139.0001  164.6353 C.3     1  UNL1        0.1988
     21 F         139.6809  137.6522  164.3663 F       1  UNL1       -0.2309
     22 C         139.4949  139.7772  165.8495 C.ar    1  UNL1        0.0071
     23 C         140.5696  140.8181  165.7428 C.ar    1  UNL1       -0.0017
     24 C         140.9842  141.5952  166.9570 C.ar    1  UNL1        0.0060
     25 C         140.3242  141.3313  168.2778 C.ar    1  UNL1        0.0748
     26 C         139.2494  140.2904  168.3845 C.ar    1  UNL1        0.0234
     27 C         138.8347  139.5133  167.1704 C.ar    1  UNL1       -0.0235
     28 C         137.7600  138.4723  167.2770 C.3     1  UNL1        0.0306
     29 C         138.7825  140.2505  169.8095 C.3     1  UNL1        0.2352
     30 O         139.5687  141.2668  170.5834 O.3     1  UNL1       -0.4404
     31 C         140.5215  141.9348  169.6368 C.2     1  UNL1        0.3413
     32 O         141.4998  143.0163  169.9877 O.2     1  UNL1       -0.2449
@<TRIPOS>BOND
     1    15    16    1
     2    16     9    1
     3     9    10   ar
     4    10    11   ar
     5    11     8    1
     6     8     7    1
     7     7     1    1
     8     1     2    1
     9     2     3    1
    10     3     4    1
    11     4    19    1
    12    19    20    1
    13    20    21    1
    14    20    22    1
    15    22    23   ar
    16    23    24   ar
    17    24    25   ar
    18    25    26   ar
    19    26    27   ar
    20    27    28    1
    21    26    29    1
    22    29    30    1
    23    30    31    1
    24    31    32    2
    25     4     5    1
    26     5     6    1
    27    11    12   ar
    28    12    13   ar
    29    13    14   ar
    30    14    17    1
    31    17    18    3
    32    14     9   ar
    33     6     1    1
    34    27    22   ar
    35    31    25    1
