@<TRIPOS>MOLECULE
*****
 36 40 0 0 0
SMALL
GASTEIGER

@<TRIPOS>ATOM
      1 C         140.4568  138.8597  160.6058 C.ar    1  UNL1        0.1651
      2 N         140.3793  140.3335  160.8746 N.ar    1  UNL1       -0.2121
      3 C         139.8655  140.8293  162.1937 C.ar    1  UNL1        0.1318
      4 C         139.4293  139.8513  163.2442 C.ar    1  UNL1        0.0491
      5 C         138.9155  140.3471  164.5634 C.ar    1  UNL1        0.0041
      6 C         138.4793  139.3692  165.6138 C.ar    1  UNL1        0.0002
      7 C         138.5568  137.8955  165.3450 C.ar    1  UNL1        0.0015
      8 C         139.0706  137.3997  164.0258 C.ar    1  UNL1        0.0192
      9 C         139.5068  138.3776  162.9754 C.ar    1  UNL1        0.0856
     10 N         140.0206  137.8819  161.6562 N.ar    1  UNL1       -0.2264
     11 C         140.5230  137.3912  156.9195 C.ar    1  UNL1        0.0698
     12 C         141.9982  137.3724  156.6483 C.ar    1  UNL1        0.1135
     13 N         142.9595  137.8493  157.6963 N.ar    1  UNL1       -0.2409
     14 C         142.4458  138.3451  159.0155 C.ar    1  UNL1        0.1020
     15 C         140.9706  138.3640  159.2866 C.ar    1  UNL1        0.0562
     16 C         140.0092  137.8870  158.2386 C.ar    1  UNL1        0.0209
     17 C         137.8613  137.4302  153.9759 C.3     1  UNL1        0.0949
     18 C         138.8227  137.9072  155.0240 C.2     1  UNL1        0.2266
     19 O         139.0451  139.3769  155.2245 O.2     1  UNL1       -0.2748
     20 N         139.5616  136.9143  155.8715 N.am    1  UNL1       -0.2827
     21 H         139.4156  135.9496  155.7399 H       1  UNL1        0.1549
     22 C         138.8379  141.8208  164.8321 C.ar    1  UNL1        0.0001
     23 C         137.6805  142.6187  164.3090 C.ar    1  UNL1        0.0000
     24 C         137.6029  144.0924  164.5777 C.ar    1  UNL1        0.0000
     25 C         138.6829  144.7682  165.3696 C.ar    1  UNL1        0.0000
     26 C         139.8403  143.9703  165.8927 C.ar    1  UNL1        0.0000
     27 C         139.9178  142.4966  165.6240 C.ar    1  UNL1        0.0000
     28 N         139.7879  142.3029  162.4625 N.pl3   1  UNL1       -0.3131
     29 H         139.0015  142.6791  162.9198 H       1  UNL1        0.1485
     30 C         140.9087  143.2034  162.0345 C.3     1  UNL1        0.1348
     31 C         142.0587  143.4623  162.9620 C.ar    1  UNL1        0.0788
     32 C         142.4432  144.8710  163.3049 C.ar    1  UNL1        0.0165
     33 C         143.5933  145.1299  164.2324 C.ar    1  UNL1        0.0029
     34 C         144.3589  143.9801  164.8170 C.ar    1  UNL1        0.0207
     35 C         143.9744  142.5713  164.4741 C.ar    1  UNL1        0.0985
     36 N         142.8243  142.3124  163.5466 N.ar    1  UNL1       -0.2464
@<TRIPOS>BOND
     1    17    18    1
     2    18    19    2
     3    18    20   am
     4    20    11    1
     5    11    12   ar
     6    12    13   ar
     7    13    14   ar
     8    14    15   ar
     9    15     1    1
    10     1     2   ar
    11     2     3   ar
    12     3    28    1
    13    28    30    1
    14    30    31    1
    15    31    32   ar
    16    32    33   ar
    17    33    34   ar
    18    34    35   ar
    19    35    36   ar
    20     3     4   ar
    21     4     5   ar
    22     5    22    1
    23    22    23   ar
    24    23    24   ar
    25    24    25   ar
    26    25    26   ar
    27    26    27   ar
    28     5     6   ar
    29     6     7   ar
    30     7     8   ar
    31     8     9   ar
    32     9    10   ar
    33    15    16   ar
    34    16    11   ar
    35    10     1   ar
    36    36    31   ar
    37     9     4   ar
    38    27    22   ar
    39    20    21    1
    40    28    29    1
@<TRIPOS>MOLECULE
*****
 36 40 0 0 0
SMALL
GASTEIGER

@<TRIPOS>ATOM
      1 C         139.3603  139.9092  158.9764 C.ar    1  UNL1        0.1651
      2 N         138.5100  140.0623  160.2026 N.ar    1  UNL1       -0.2121
      3 C         139.0448  139.6510  161.5423 C.ar    1  UNL1        0.1318
      4 C         140.4300  139.0865  161.6558 C.ar    1  UNL1        0.0491
      5 C         140.9648  138.6752  162.9955 C.ar    1  UNL1        0.0041
      6 C         142.3499  138.1108  163.1089 C.ar    1  UNL1        0.0002
      7 C         143.2002  137.9578  161.8828 C.ar    1  UNL1        0.0015
      8 C         142.6653  138.3691  160.5431 C.ar    1  UNL1        0.0192
      9 C         141.2802  138.9335  160.4296 C.ar    1  UNL1        0.0856
     10 N         140.7454  139.3449  159.0899 N.ar    1  UNL1       -0.2264
     11 C         136.8635  141.1738  156.1628 C.ar    1  UNL1        0.0698
     12 C         137.7558  141.1433  154.9574 C.ar    1  UNL1        0.1135
     13 N         139.1829  140.7014  155.0917 N.ar    1  UNL1       -0.2409
     14 C         139.7177  140.2901  156.4314 C.ar    1  UNL1        0.1020
     15 C         138.8255  140.3206  157.6367 C.ar    1  UNL1        0.0562
     16 C         137.3983  140.7625  157.5024 C.ar    1  UNL1        0.0209
     17 C         132.9238  141.0401  155.7026 C.3     1  UNL1        0.0949
     18 C         134.3510  140.5982  155.8369 C.2     1  UNL1        0.2266
     19 O         134.6928  139.1388  155.7798 O.2     1  UNL1       -0.2748
     20 N         135.4364  141.6157  156.0284 N.am    1  UNL1       -0.2827
     21 H         135.2120  142.5736  156.0659 H       1  UNL1        0.1549
     22 C         140.1145  138.8283  164.2217 C.ar    1  UNL1        0.0001
     23 C         140.2100  140.0753  165.0498 C.ar    1  UNL1        0.0000
     24 C         139.3597  140.2283  166.2760 C.ar    1  UNL1        0.0000
     25 C         138.4138  139.1343  166.6741 C.ar    1  UNL1        0.0000
     26 C         138.3183  137.8872  165.8459 C.ar    1  UNL1        0.0000
     27 C         139.1686  137.7342  164.6198 C.ar    1  UNL1        0.0000
     28 N         138.1945  139.8040  162.7685 N.pl3   1  UNL1       -0.3131
     29 H         138.2136  139.1135  163.4700 H       1  UNL1        0.1485
     30 C         137.3152  141.0091  162.9259 C.3     1  UNL1        0.1348
     31 C         137.9244  142.3502  163.2090 C.ar    1  UNL1        0.0788
     32 C         137.8034  142.9554  164.5761 C.ar    1  UNL1        0.0165
     33 C         138.4126  144.2966  164.8592 C.ar    1  UNL1        0.0029
     34 C         139.1428  145.0325  163.7752 C.ar    1  UNL1        0.0207
     35 C         139.2638  144.4273  162.4080 C.ar    1  UNL1        0.0985
     36 N         138.6546  143.0862  162.1249 N.ar    1  UNL1       -0.2464
@<TRIPOS>BOND
     1    17    18    1
     2    18    19    2
     3    18    20   am
     4    20    11    1
     5    11    12   ar
     6    12    13   ar
     7    13    14   ar
     8    14    15   ar
     9    15     1    1
    10     1     2   ar
    11     2     3   ar
    12     3    28    1
    13    28    30    1
    14    30    31    1
    15    31    32   ar
    16    32    33   ar
    17    33    34   ar
    18    34    35   ar
    19    35    36   ar
    20     3     4   ar
    21     4     5   ar
    22     5    22    1
    23    22    23   ar
    24    23    24   ar
    25    24    25   ar
    26    25    26   ar
    27    26    27   ar
    28     5     6   ar
    29     6     7   ar
    30     7     8   ar
    31     8     9   ar
    32     9    10   ar
    33    15    16   ar
    34    16    11   ar
    35    10     1   ar
    36    36    31   ar
    37     9     4   ar
    38    27    22   ar
    39    20    21    1
    40    28    29    1
@<TRIPOS>MOLECULE
*****
 36 40 0 0 0
SMALL
GASTEIGER

@<TRIPOS>ATOM
      1 C         141.1945  139.3000  160.2453 C.ar    1  UNL1        0.1651
      2 N         141.0325  140.7388  160.6373 N.ar    1  UNL1       -0.2121
      3 C         140.3428  141.0932  161.9213 C.ar    1  UNL1        0.1318
      4 C         139.8150  140.0088  162.8133 C.ar    1  UNL1        0.0491
      5 C         139.1252  140.3632  164.0973 C.ar    1  UNL1        0.0041
      6 C         138.5975  139.2788  164.9892 C.ar    1  UNL1        0.0002
      7 C         138.7595  137.8401  164.5972 C.ar    1  UNL1        0.0015
      8 C         139.4493  137.4857  163.3132 C.ar    1  UNL1        0.0192
      9 C         139.9770  138.5700  162.4212 C.ar    1  UNL1        0.0856
     10 N         140.6668  138.2156  161.1373 N.ar    1  UNL1       -0.2264
     11 C         142.0215  137.5035  156.8045 C.ar    1  UNL1        0.0698
     12 C         143.2638  138.2368  156.3933 C.ar    1  UNL1        0.1135
     13 N         143.8163  139.3244  157.2661 N.ar    1  UNL1       -0.2409
     14 C         143.1266  139.6788  158.5501 C.ar    1  UNL1        0.1020
     15 C         141.8843  138.9456  158.9613 C.ar    1  UNL1        0.0562
     16 C         141.3317  137.8579  158.0885 C.ar    1  UNL1        0.0209
     17 C         141.4644  133.9355  155.1586 C.3     1  UNL1        0.0949
     18 C         142.0170  135.0231  156.0315 C.2     1  UNL1        0.2266
     19 O         143.1174  134.7180  157.0040 O.2     1  UNL1       -0.2748
     20 N         141.4690  136.4159  155.9317 N.am    1  UNL1       -0.2827
     21 H         140.7467  136.6162  155.2934 H       1  UNL1        0.1549
     22 C         138.9632  141.8020  164.4893 C.ar    1  UNL1        0.0001
     23 C         137.8104  142.5995  163.9556 C.ar    1  UNL1        0.0000
     24 C         137.6484  144.0384  164.3476 C.ar    1  UNL1        0.0000
     25 C         138.6393  144.6796  165.2733 C.ar    1  UNL1        0.0000
     26 C         139.7921  143.8820  165.8070 C.ar    1  UNL1        0.0000
     27 C         139.9541  142.4432  165.4150 C.ar    1  UNL1        0.0000
     28 N         140.1807  142.5320  162.3133 N.pl3   1  UNL1       -0.3131
     29 H         139.3302  142.8445  162.6981 H       1  UNL1        0.1485
     30 C         141.3147  143.4945  162.1191 C.3     1  UNL1        0.1348
     31 C         142.4117  143.5768  163.1389 C.ar    1  UNL1        0.0788
     32 C         142.8229  144.9089  163.6922 C.ar    1  UNL1        0.0165
     33 C         143.9199  144.9912  164.7120 C.ar    1  UNL1        0.0029
     34 C         144.6056  143.7414  165.1784 C.ar    1  UNL1        0.0207
     35 C         144.1943  142.4091  164.6250 C.ar    1  UNL1        0.0985
     36 N         143.0974  142.3269  163.6053 N.ar    1  UNL1       -0.2464
@<TRIPOS>BOND
     1    17    18    1
     2    18    19    2
     3    18    20   am
     4    20    11    1
     5    11    12   ar
     6    12    13   ar
     7    13    14   ar
     8    14    15   ar
     9    15     1    1
    10     1     2   ar
    11     2     3   ar
    12     3    28    1
    13    28    30    1
    14    30    31    1
    15    31    32   ar
    16    32    33   ar
    17    33    34   ar
    18    34    35   ar
    19    35    36   ar
    20     3     4   ar
    21     4     5   ar
    22     5    22    1
    23    22    23   ar
    24    23    24   ar
    25    24    25   ar
    26    25    26   ar
    27    26    27   ar
    28     5     6   ar
    29     6     7   ar
    30     7     8   ar
    31     8     9   ar
    32     9    10   ar
    33    15    16   ar
    34    16    11   ar
    35    10     1   ar
    36    36    31   ar
    37     9     4   ar
    38    27    22   ar
    39    20    21    1
    40    28    29    1
@<TRIPOS>MOLECULE
*****
 36 40 0 0 0
SMALL
GASTEIGER

@<TRIPOS>ATOM
      1 C         142.7180  140.9378  160.9288 C.ar    1  UNL1        0.1651
      2 N         141.3285  140.6841  161.4338 N.ar    1  UNL1       -0.2121
      3 C         141.1231  140.0396  162.7726 C.ar    1  UNL1        0.1318
      4 C         142.3072  139.6488  163.6065 C.ar    1  UNL1        0.0491
      5 C         142.1018  139.0044  164.9453 C.ar    1  UNL1        0.0041
      6 C         143.2859  138.6136  165.7791 C.ar    1  UNL1        0.0002
      7 C         144.6753  138.8674  165.2741 C.ar    1  UNL1        0.0015
      8 C         144.8807  139.5118  163.9353 C.ar    1  UNL1        0.0192
      9 C         143.6966  139.9026  163.1015 C.ar    1  UNL1        0.0856
     10 N         143.9020  140.5471  161.7627 N.ar    1  UNL1       -0.2264
     11 C         144.5169  142.5279  157.7688 C.ar    1  UNL1        0.0698
     12 C         143.3342  142.8712  156.9123 C.ar    1  UNL1        0.1135
     13 N         141.9462  142.5701  157.3948 N.ar    1  UNL1       -0.2409
     14 C         141.7408  141.9257  158.7336 C.ar    1  UNL1        0.1020
     15 C         142.9234  141.5823  159.5900 C.ar    1  UNL1        0.0562
     16 C         144.3115  141.8834  159.1076 C.ar    1  UNL1        0.0209
     17 C         147.9789  142.1892  155.8583 C.3     1  UNL1        0.0949
     18 C         146.5908  141.8881  156.3407 C.2     1  UNL1        0.2266
     19 O         145.8888  140.6461  155.8776 O.2     1  UNL1       -0.2748
     20 N         145.9048  142.8290  157.2863 N.am    1  UNL1       -0.2827
     21 H         146.3656  143.6441  157.5903 H       1  UNL1        0.1549
     22 C         140.7123  138.7506  165.4503 C.ar    1  UNL1        0.0001
     23 C         139.9605  137.5340  164.9981 C.ar    1  UNL1        0.0000
     24 C         138.5709  137.2803  165.5030 C.ar    1  UNL1        0.0000
     25 C         137.9334  138.2432  166.4602 C.ar    1  UNL1        0.0000
     26 C         138.6853  139.4599  166.9125 C.ar    1  UNL1        0.0000
     27 C         140.0747  139.7135  166.4075 C.ar    1  UNL1        0.0000
     28 N         139.7337  139.7858  163.2776 N.pl3   1  UNL1       -0.3131
     29 H         139.5200  138.9349  163.7243 H       1  UNL1        0.1485
     30 C         138.6697  140.8286  163.1021 C.3     1  UNL1        0.1348
     31 C         138.7814  142.1419  163.8182 C.ar    1  UNL1        0.0788
     32 C         137.5670  143.0039  163.9976 C.ar    1  UNL1        0.0165
     33 C         137.6787  144.3173  164.7136 C.ar    1  UNL1        0.0029
     34 C         139.0047  144.7686  165.2503 C.ar    1  UNL1        0.0207
     35 C         140.2191  143.9065  165.0708 C.ar    1  UNL1        0.0985
     36 N         140.1074  142.5932  164.3548 N.ar    1  UNL1       -0.2464
@<TRIPOS>BOND
     1    17    18    1
     2    18    19    2
     3    18    20   am
     4    20    11    1
     5    11    12   ar
     6    12    13   ar
     7    13    14   ar
     8    14    15   ar
     9    15     1    1
    10     1     2   ar
    11     2     3   ar
    12     3    28    1
    13    28    30    1
    14    30    31    1
    15    31    32   ar
    16    32    33   ar
    17    33    34   ar
    18    34    35   ar
    19    35    36   ar
    20     3     4   ar
    21     4     5   ar
    22     5    22    1
    23    22    23   ar
    24    23    24   ar
    25    24    25   ar
    26    25    26   ar
    27    26    27   ar
    28     5     6   ar
    29     6     7   ar
    30     7     8   ar
    31     8     9   ar
    32     9    10   ar
    33    15    16   ar
    34    16    11   ar
    35    10     1   ar
    36    36    31   ar
    37     9     4   ar
    38    27    22   ar
    39    20    21    1
    40    28    29    1
@<TRIPOS>MOLECULE
*****
 36 40 0 0 0
SMALL
GASTEIGER

@<TRIPOS>ATOM
      1 C         140.4285  143.3232  159.7285 C.ar    1  UNL1        0.1651
      2 N         140.8355  141.9465  160.1637 N.ar    1  UNL1       -0.2121
      3 C         140.3581  141.4036  161.4780 C.ar    1  UNL1        0.1318
      4 C         139.4736  142.2374  162.3571 C.ar    1  UNL1        0.0491
      5 C         138.9962  141.6945  163.6714 C.ar    1  UNL1        0.0041
      6 C         138.1118  142.5281  164.5504 C.ar    1  UNL1        0.0002
      7 C         137.7048  143.9047  164.1152 C.ar    1  UNL1        0.0015
      8 C         138.1823  144.4476  162.8009 C.ar    1  UNL1        0.0192
      9 C         139.0667  143.6139  161.9219 C.ar    1  UNL1        0.0856
     10 N         139.5441  144.1568  160.6076 N.ar    1  UNL1       -0.2264
     11 C         140.9611  145.7782  156.6562 C.ar    1  UNL1        0.0698
     12 C         141.8608  144.9518  155.7857 C.ar    1  UNL1        0.1135
     13 N         142.2830  143.5826  156.2295 N.ar    1  UNL1       -0.2409
     14 C         141.8055  143.0397  157.5437 C.ar    1  UNL1        0.1020
     15 C         140.9059  143.8661  158.4142 C.ar    1  UNL1        0.0562
     16 C         140.4837  145.2353  157.9705 C.ar    1  UNL1        0.0209
     17 C         138.7742  148.7176  155.1305 C.3     1  UNL1        0.0949
     18 C         139.1963  147.3483  155.5743 C.2     1  UNL1        0.2266
     19 O         138.2760  146.1799  155.3800 O.2     1  UNL1       -0.2748
     20 N         140.5389  147.1474  156.2124 N.am    1  UNL1       -0.2827
     21 H         141.1430  147.9143  156.3400 H       1  UNL1        0.1549
     22 C         139.4032  140.3179  164.1066 C.ar    1  UNL1        0.0001
     23 C         140.6063  140.1335  164.9832 C.ar    1  UNL1        0.0000
     24 C         141.0133  138.7568  165.4184 C.ar    1  UNL1        0.0000
     25 C         140.2172  137.5647  164.9769 C.ar    1  UNL1        0.0000
     26 C         139.0141  137.7491  164.1002 C.ar    1  UNL1        0.0000
     27 C         138.6071  139.1257  163.6650 C.ar    1  UNL1        0.0000
     28 N         140.7650  140.0271  161.9132 N.pl3   1  UNL1       -0.3131
     29 H         140.1262  139.4546  162.3962 H       1  UNL1        0.1485
     30 C         142.1454  139.5229  161.6125 C.3     1  UNL1        0.1348
     31 C         143.3310  140.1219  162.3092 C.ar    1  UNL1        0.0788
     32 C         143.9546  139.4112  163.4737 C.ar    1  UNL1        0.0165
     33 C         145.1403  140.0103  164.1705 C.ar    1  UNL1        0.0029
     34 C         145.7023  141.3200  163.7027 C.ar    1  UNL1        0.0207
     35 C         145.0787  142.0306  162.5381 C.ar    1  UNL1        0.0985
     36 N         143.8931  141.4316  161.8414 N.ar    1  UNL1       -0.2464
@<TRIPOS>BOND
     1    17    18    1
     2    18    19    2
     3    18    20   am
     4    20    11    1
     5    11    12   ar
     6    12    13   ar
     7    13    14   ar
     8    14    15   ar
     9    15     1    1
    10     1     2   ar
    11     2     3   ar
    12     3    28    1
    13    28    30    1
    14    30    31    1
    15    31    32   ar
    16    32    33   ar
    17    33    34   ar
    18    34    35   ar
    19    35    36   ar
    20     3     4   ar
    21     4     5   ar
    22     5    22    1
    23    22    23   ar
    24    23    24   ar
    25    24    25   ar
    26    25    26   ar
    27    26    27   ar
    28     5     6   ar
    29     6     7   ar
    30     7     8   ar
    31     8     9   ar
    32     9    10   ar
    33    15    16   ar
    34    16    11   ar
    35    10     1   ar
    36    36    31   ar
    37     9     4   ar
    38    27    22   ar
    39    20    21    1
    40    28    29    1
@<TRIPOS>MOLECULE
*****
 36 40 0 0 0
SMALL
GASTEIGER

@<TRIPOS>ATOM
      1 C         139.8078  141.6295  163.1445 C.ar    1  UNL1        0.1651
      2 N         140.8005  142.3179  164.0337 N.ar    1  UNL1       -0.2121
      3 C         140.8514  141.9893  165.4964 C.ar    1  UNL1        0.1318
      4 C         139.9096  140.9723  166.0698 C.ar    1  UNL1        0.0491
      5 C         139.9604  140.6437  167.5325 C.ar    1  UNL1        0.0041
      6 C         139.0187  139.6268  168.1060 C.ar    1  UNL1        0.0002
      7 C         138.0261  138.9384  167.2167 C.ar    1  UNL1        0.0015
      8 C         137.9752  139.2670  165.7540 C.ar    1  UNL1        0.0192
      9 C         138.9170  140.2839  165.1806 C.ar    1  UNL1        0.0856
     10 N         138.8661  140.6125  163.7179 N.ar    1  UNL1       -0.2264
     11 C         140.8969  142.0164  159.3478 C.ar    1  UNL1        0.0698
     12 C         139.6552  142.6152  158.7564 C.ar    1  UNL1        0.1135
     13 N         138.4645  142.8853  159.6276 N.ar    1  UNL1       -0.2409
     14 C         138.5154  142.5568  161.0903 C.ar    1  UNL1        0.1020
     15 C         139.7570  141.9580  161.6818 C.ar    1  UNL1        0.0562
     16 C         140.9478  141.6878  160.8105 C.ar    1  UNL1        0.0209
     17 C         144.3658  142.5019  157.4820 C.3     1  UNL1        0.0949
     18 C         143.1750  142.7721  158.3533 C.2     1  UNL1        0.2266
     19 O         143.0716  144.0682  159.1012 O.2     1  UNL1       -0.2748
     20 N         142.0877  141.7462  158.4766 N.am    1  UNL1       -0.2827
     21 H         142.1555  140.8955  157.9857 H       1  UNL1        0.1549
     22 C         140.9531  141.3322  168.4218 C.ar    1  UNL1        0.0001
     23 C         142.2698  140.6796  168.7223 C.ar    1  UNL1        0.0000
     24 C         143.2625  141.3680  169.6116 C.ar    1  UNL1        0.0000
     25 C         142.9384  142.7091  170.2003 C.ar    1  UNL1        0.0000
     26 C         141.6216  143.3617  169.8996 C.ar    1  UNL1        0.0000
     27 C         140.6290  142.6733  169.0104 C.ar    1  UNL1        0.0000
     28 N         141.8440  142.6777  166.3857 N.pl3   1  UNL1       -0.3131
     29 H         141.5316  143.2090  167.1534 H       1  UNL1        0.1485
     30 C         143.3126  142.5566  166.1052 C.3     1  UNL1        0.1348
     31 C         143.8035  142.4999  164.6890 C.ar    1  UNL1        0.0788
     32 C         144.2199  141.1886  164.0915 C.ar    1  UNL1        0.0165
     33 C         144.7108  141.1318  162.6752 C.ar    1  UNL1        0.0029
     34 C         144.7854  142.3864  161.8565 C.ar    1  UNL1        0.0207
     35 C         144.3691  143.6978  162.4540 C.ar    1  UNL1        0.0985
     36 N         143.8782  143.7545  163.8702 N.ar    1  UNL1       -0.2464
@<TRIPOS>BOND
     1    17    18    1
     2    18    19    2
     3    18    20   am
     4    20    11    1
     5    11    12   ar
     6    12    13   ar
     7    13    14   ar
     8    14    15   ar
     9    15     1    1
    10     1     2   ar
    11     2     3   ar
    12     3    28    1
    13    28    30    1
    14    30    31    1
    15    31    32   ar
    16    32    33   ar
    17    33    34   ar
    18    34    35   ar
    19    35    36   ar
    20     3     4   ar
    21     4     5   ar
    22     5    22    1
    23    22    23   ar
    24    23    24   ar
    25    24    25   ar
    26    25    26   ar
    27    26    27   ar
    28     5     6   ar
    29     6     7   ar
    30     7     8   ar
    31     8     9   ar
    32     9    10   ar
    33    15    16   ar
    34    16    11   ar
    35    10     1   ar
    36    36    31   ar
    37     9     4   ar
    38    27    22   ar
    39    20    21    1
    40    28    29    1
@<TRIPOS>MOLECULE
*****
 36 40 0 0 0
SMALL
GASTEIGER

@<TRIPOS>ATOM
      1 C         141.3206  138.9960  163.1757 C.ar    1  UNL1        0.1651
      2 N         142.2398  139.7736  164.0705 N.ar    1  UNL1       -0.2121
      3 C         141.8293  140.0845  165.4793 C.ar    1  UNL1        0.1318
      4 C         140.4996  139.6179  165.9933 C.ar    1  UNL1        0.0491
      5 C         140.0890  139.9288  167.4022 C.ar    1  UNL1        0.0041
      6 C         138.7594  139.4622  167.9162 C.ar    1  UNL1        0.0002
      7 C         137.8403  138.6847  167.0215 C.ar    1  UNL1        0.0015
      8 C         138.2508  138.3737  165.6126 C.ar    1  UNL1        0.0192
      9 C         139.5805  138.8403  165.0986 C.ar    1  UNL1        0.0856
     10 N         139.9910  138.5294  163.6897 N.ar    1  UNL1       -0.2264
     11 C         141.1277  138.4218  159.2535 C.ar    1  UNL1        0.0698
     12 C         142.5522  138.0633  158.9492 C.ar    1  UNL1        0.1135
     13 N         143.5660  138.0157  160.0537 N.ar    1  UNL1       -0.2409
     14 C         143.1555  138.3266  161.4625 C.ar    1  UNL1        0.1020
     15 C         141.7311  138.6851  161.7669 C.ar    1  UNL1        0.0562
     16 C         140.7172  138.7327  160.6624 C.ar    1  UNL1        0.0209
     17 C         138.8339  139.8064  156.3258 C.3     1  UNL1        0.0949
     18 C         139.8478  139.7588  157.4303 C.2     1  UNL1        0.2266
     19 O         140.5955  141.0006  157.8160 O.2     1  UNL1       -0.2748
     20 N         140.1139  138.4694  158.1491 N.am    1  UNL1       -0.2827
     21 H         139.6232  137.6543  157.8959 H       1  UNL1        0.1549
     22 C         141.0082  140.7063  168.2969 C.ar    1  UNL1        0.0001
     23 C         140.8588  142.1942  168.4148 C.ar    1  UNL1        0.0000
     24 C         141.7780  142.9718  169.3096 C.ar    1  UNL1        0.0000
     25 C         142.8466  142.2614  170.0865 C.ar    1  UNL1        0.0000
     26 C         142.9960  140.7735  169.9685 C.ar    1  UNL1        0.0000
     27 C         142.0768  139.9960  169.0738 C.ar    1  UNL1        0.0000
     28 N         142.7484  140.8620  166.3741 N.pl3   1  UNL1       -0.3131
     29 H         142.7757  140.6689  167.3390 H       1  UNL1        0.1485
     30 C         143.6259  141.9339  165.7986 C.3     1  UNL1        0.1348
     31 C         143.0156  143.0798  165.0474 C.ar    1  UNL1        0.0788
     32 C         143.8936  144.0382  164.2985 C.ar    1  UNL1        0.0165
     33 C         143.2833  145.1842  163.5473 C.ar    1  UNL1        0.0029
     34 C         141.7951  145.3718  163.5450 C.ar    1  UNL1        0.0207
     35 C         140.9171  144.4134  164.2939 C.ar    1  UNL1        0.0985
     36 N         141.5274  143.2675  165.0451 N.ar    1  UNL1       -0.2464
@<TRIPOS>BOND
     1    17    18    1
     2    18    19    2
     3    18    20   am
     4    20    11    1
     5    11    12   ar
     6    12    13   ar
     7    13    14   ar
     8    14    15   ar
     9    15     1    1
    10     1     2   ar
    11     2     3   ar
    12     3    28    1
    13    28    30    1
    14    30    31    1
    15    31    32   ar
    16    32    33   ar
    17    33    34   ar
    18    34    35   ar
    19    35    36   ar
    20     3     4   ar
    21     4     5   ar
    22     5    22    1
    23    22    23   ar
    24    23    24   ar
    25    24    25   ar
    26    25    26   ar
    27    26    27   ar
    28     5     6   ar
    29     6     7   ar
    30     7     8   ar
    31     8     9   ar
    32     9    10   ar
    33    15    16   ar
    34    16    11   ar
    35    10     1   ar
    36    36    31   ar
    37     9     4   ar
    38    27    22   ar
    39    20    21    1
    40    28    29    1
@<TRIPOS>MOLECULE
*****
 36 40 0 0 0
SMALL
GASTEIGER

@<TRIPOS>ATOM
      1 C         142.8834  141.0342  160.6398 C.ar    1  UNL1        0.1651
      2 N         141.4917  140.8016  161.1489 N.ar    1  UNL1       -0.2121
      3 C         141.2806  140.1938  162.5040 C.ar    1  UNL1        0.1318
      4 C         142.4612  139.8187  163.3499 C.ar    1  UNL1        0.0491
      5 C         142.2501  139.2110  164.7049 C.ar    1  UNL1        0.0041
      6 C         143.4306  138.8358  165.5508 C.ar    1  UNL1        0.0002
      7 C         144.8222  139.0684  165.0417 C.ar    1  UNL1        0.0015
      8 C         145.0333  139.6762  163.6867 C.ar    1  UNL1        0.0192
      9 C         143.8528  140.0513  162.8408 C.ar    1  UNL1        0.0856
     10 N         144.0639  140.6590  161.4858 N.ar    1  UNL1       -0.2264
     11 C         142.2715  143.1692  157.3509 C.ar    1  UNL1        0.0698
     12 C         143.5167  142.8574  156.5748 C.ar    1  UNL1        0.1135
     13 N         144.5508  141.9379  157.1537 N.ar    1  UNL1       -0.2409
     14 C         144.3397  141.3301  158.5087 C.ar    1  UNL1        0.1020
     15 C         143.0945  141.6419  159.2848 C.ar    1  UNL1        0.0562
     16 C         142.0604  142.5614  158.7059 C.ar    1  UNL1        0.0209
     17 C         140.2514  146.4765  156.4958 C.3     1  UNL1        0.0949
     18 C         141.2855  145.5570  157.0749 C.2     1  UNL1        0.2266
     19 O         142.3676  146.1058  157.9568 O.2     1  UNL1       -0.2748
     20 N         141.2374  144.0887  156.7719 N.am    1  UNL1       -0.2827
     21 H         140.5272  143.7285  156.1931 H       1  UNL1        0.1549
     22 C         140.8584  138.9784  165.2140 C.ar    1  UNL1        0.0001
     23 C         140.1955  140.0068  166.0818 C.ar    1  UNL1        0.0000
     24 C         138.8038  139.7742  166.5909 C.ar    1  UNL1        0.0000
     25 C         138.0750  138.5132  166.2322 C.ar    1  UNL1        0.0000
     26 C         138.7379  137.4848  165.3644 C.ar    1  UNL1        0.0000
     27 C         140.1295  137.7174  164.8553 C.ar    1  UNL1        0.0000
     28 N         139.8890  139.9612  163.0131 N.pl3   1  UNL1       -0.3131
     29 H         139.6783  139.1390  163.5118 H       1  UNL1        0.1485
     30 C         138.8182  140.9815  162.7623 C.3     1  UNL1        0.1348
     31 C         138.8543  142.2983  163.4795 C.ar    1  UNL1        0.0788
     32 C         137.7031  142.7110  164.3481 C.ar    1  UNL1        0.0165
     33 C         137.7391  144.0279  165.0654 C.ar    1  UNL1        0.0029
     34 C         138.9263  144.9322  164.9140 C.ar    1  UNL1        0.0207
     35 C         140.0775  144.5195  164.0453 C.ar    1  UNL1        0.0985
     36 N         140.0415  143.2026  163.3281 N.ar    1  UNL1       -0.2464
@<TRIPOS>BOND
     1    17    18    1
     2    18    19    2
     3    18    20   am
     4    20    11    1
     5    11    12   ar
     6    12    13   ar
     7    13    14   ar
     8    14    15   ar
     9    15     1    1
    10     1     2   ar
    11     2     3   ar
    12     3    28    1
    13    28    30    1
    14    30    31    1
    15    31    32   ar
    16    32    33   ar
    17    33    34   ar
    18    34    35   ar
    19    35    36   ar
    20     3     4   ar
    21     4     5   ar
    22     5    22    1
    23    22    23   ar
    24    23    24   ar
    25    24    25   ar
    26    25    26   ar
    27    26    27   ar
    28     5     6   ar
    29     6     7   ar
    30     7     8   ar
    31     8     9   ar
    32     9    10   ar
    33    15    16   ar
    34    16    11   ar
    35    10     1   ar
    36    36    31   ar
    37     9     4   ar
    38    27    22   ar
    39    20    21    1
    40    28    29    1
@<TRIPOS>MOLECULE
*****
 36 40 0 0 0
SMALL
GASTEIGER

@<TRIPOS>ATOM
      1 C         142.9085  141.8010  162.8700 C.ar    1  UNL1        0.1651
      2 N         142.1633  142.6227  163.8798 N.ar    1  UNL1       -0.2121
      3 C         142.0150  142.1270  165.2878 C.ar    1  UNL1        0.1318
      4 C         142.6120  140.8097  165.6859 C.ar    1  UNL1        0.0491
      5 C         142.4637  140.3141  167.0939 C.ar    1  UNL1        0.0041
      6 C         143.0606  138.9969  167.4921 C.ar    1  UNL1        0.0002
      7 C         143.8058  138.1753  166.4823 C.ar    1  UNL1        0.0015
      8 C         143.9540  138.6709  165.0743 C.ar    1  UNL1        0.0192
      9 C         143.3571  139.9882  164.6761 C.ar    1  UNL1        0.0856
     10 N         143.5054  140.4838  163.2682 N.ar    1  UNL1       -0.2264
     11 C         142.0645  143.4997  159.3840 C.ar    1  UNL1        0.0698
     12 C         143.3533  143.2880  158.6461 C.ar    1  UNL1        0.1135
     13 N         144.4937  142.5806  159.3162 N.ar    1  UNL1       -0.2409
     14 C         144.3454  142.0849  160.7242 C.ar    1  UNL1        0.1020
     15 C         143.0567  142.2967  161.4620 C.ar    1  UNL1        0.0562
     16 C         141.9163  143.0041  160.7919 C.ar    1  UNL1        0.0209
     17 C         140.0011  146.2580  157.4132 C.3     1  UNL1        0.0949
     18 C         141.1416  145.5506  158.0833 C.2     1  UNL1        0.2266
     19 O         142.4994  146.1868  158.1228 O.2     1  UNL1       -0.2748
     20 N         140.9241  144.2071  158.7139 N.am    1  UNL1       -0.2827
     21 H         140.0329  143.7896  158.6879 H       1  UNL1        0.1549
     22 C         141.7185  141.1357  168.1037 C.ar    1  UNL1        0.0001
     23 C         140.2938  140.8044  168.4360 C.ar    1  UNL1        0.0000
     24 C         139.5486  141.6261  169.4458 C.ar    1  UNL1        0.0000
     25 C         140.2281  142.7790  170.1232 C.ar    1  UNL1        0.0000
     26 C         141.6529  143.1104  169.7908 C.ar    1  UNL1        0.0000
     27 C         142.3980  142.2887  168.7811 C.ar    1  UNL1        0.0000
     28 N         141.2698  142.9486  166.2975 N.pl3   1  UNL1       -0.3131
     29 H         141.6821  143.1510  167.1683 H       1  UNL1        0.1485
     30 C         139.8964  143.4619  165.9806 C.3     1  UNL1        0.1348
     31 C         139.0560  142.7683  164.9498 C.ar    1  UNL1        0.0788
     32 C         138.7052  141.3198  165.1191 C.ar    1  UNL1        0.0165
     33 C         137.8647  140.6261  164.0883 C.ar    1  UNL1        0.0029
     34 C         137.3750  141.3811  162.8882 C.ar    1  UNL1        0.0207
     35 C         137.7259  142.8297  162.7189 C.ar    1  UNL1        0.0985
     36 N         138.5663  143.5232  163.7497 N.ar    1  UNL1       -0.2464
@<TRIPOS>BOND
     1    17    18    1
     2    18    19    2
     3    18    20   am
     4    20    11    1
     5    11    12   ar
     6    12    13   ar
     7    13    14   ar
     8    14    15   ar
     9    15     1    1
    10     1     2   ar
    11     2     3   ar
    12     3    28    1
    13    28    30    1
    14    30    31    1
    15    31    32   ar
    16    32    33   ar
    17    33    34   ar
    18    34    35   ar
    19    35    36   ar
    20     3     4   ar
    21     4     5   ar
    22     5    22    1
    23    22    23   ar
    24    23    24   ar
    25    24    25   ar
    26    25    26   ar
    27    26    27   ar
    28     5     6   ar
    29     6     7   ar
    30     7     8   ar
    31     8     9   ar
    32     9    10   ar
    33    15    16   ar
    34    16    11   ar
    35    10     1   ar
    36    36    31   ar
    37     9     4   ar
    38    27    22   ar
    39    20    21    1
    40    28    29    1
