@<TRIPOS>MOLECULE
*****
 33 37 0 0 0
SMALL
GASTEIGER

@<TRIPOS>ATOM
      1 C         138.9517  139.7148  166.4268 C.ar    1  UNL1        0.0206
      2 C         138.9159  138.3510  165.8032 C.ar    1  UNL1        0.0013
      3 C         138.7817  138.2096  164.3159 C.ar    1  UNL1       -0.0045
      4 C         138.6832  139.4320  163.4522 C.ar    1  UNL1       -0.0247
      5 C         138.7190  140.7957  164.0757 C.ar    1  UNL1       -0.0246
      6 C         138.8532  140.9372  165.5630 C.ar    1  UNL1       -0.0029
      7 C         138.6362  142.1341  163.4033 C.3     1  UNL1        0.0433
      8 C         138.4973  142.4390  161.9411 C.3     1  UNL1        0.0768
      9 N         138.4068  141.4811  160.7905 N.3     1  UNL1       -0.2720
     10 C         138.4328  139.9816  160.8176 C.3     1  UNL1        0.0768
     11 C         138.5559  139.0696  162.0022 C.3     1  UNL1        0.0433
     12 C         140.8652  140.8800  171.2081 C.3     1  UNL1        0.0754
     13 C         139.9655  140.3917  170.1118 C.ar    1  UNL1        0.1548
     14 C         140.2539  140.4539  168.6410 C.ar    1  UNL1        0.0580
     15 C         139.0860  139.8561  167.9140 C.ar    1  UNL1        0.1227
     16 N         138.0758  139.4244  168.9354 N.ar    1  UNL1       -0.0774
     17 O         138.6194  139.7554  170.2936 O.2     1  UNL1       -0.3578
     18 C         138.2724  142.1052  159.4331 C.3     1  UNL1        0.0730
     19 C         139.4924  142.5854  158.7043 C.3     1  UNL1        0.0294
     20 C         139.5587  143.9971  158.2015 C.3     1  UNL1        0.0666
     21 S         140.5111  144.9722  158.8275 S.3     1  UNL1       -0.0756
     22 C         140.6719  145.0118  160.3184 C.ar    1  UNL1        0.1932
     23 N         139.8350  145.8088  161.2745 N.ar    1  UNL1       -0.1221
     24 N         140.3436  145.5510  162.6619 N.ar    1  UNL1       -0.1282
     25 C         141.4949  144.5945  162.5632 C.ar    1  UNL1        0.1669
     26 N         141.6978  144.2612  161.1148 N.ar    1  UNL1       -0.2884
     27 C         142.7430  143.3393  160.5602 C.3     1  UNL1        0.1340
     28 C         142.3016  144.0643  163.7112 C.ar    1  UNL1        0.0390
     29 C         143.6740  144.6080  163.9779 C.ar    1  UNL1        0.0237
     30 C         144.4807  144.0778  165.1259 C.ar    1  UNL1        0.0990
     31 N         143.9152  143.0040  166.0074 N.ar    1  UNL1       -0.2423
     32 C         142.5428  142.4604  165.7408 C.ar    1  UNL1        0.0990
     33 C         141.7361  142.9905  164.5927 C.ar    1  UNL1        0.0237
@<TRIPOS>BOND
     1    12    13    1
     2    13    14   ar
     3    14    15   ar
     4    15     1    1
     5     1     2   ar
     6     2     3   ar
     7     3     4   ar
     8     4     5   ar
     9     5     6   ar
    10     5     7    1
    11     7     8    1
    12     8     9    1
    13     9    18    1
    14    18    19    1
    15    19    20    1
    16    20    21    1
    17    21    22    1
    18    22    23   ar
    19    23    24   ar
    20    24    25   ar
    21    25    28    1
    22    28    29   ar
    23    29    30   ar
    24    30    31   ar
    25    31    32   ar
    26    32    33   ar
    27    25    26   ar
    28    26    27    1
    29     9    10    1
    30    10    11    1
    31    15    16   ar
    32    16    17   ar
    33    17    13   ar
    34     6     1   ar
    35    26    22   ar
    36    11     4    1
    37    33    28   ar
@<TRIPOS>MOLECULE
*****
 33 37 0 0 0
SMALL
GASTEIGER

@<TRIPOS>ATOM
      1 C         141.4109  142.1195  166.1796 C.ar    1  UNL1        0.0206
      2 C         140.2134  142.9495  166.5362 C.ar    1  UNL1        0.0013
      3 C         139.6329  143.8994  165.5308 C.ar    1  UNL1       -0.0045
      4 C         140.2499  144.0192  164.1688 C.ar    1  UNL1       -0.0247
      5 C         141.4473  143.1892  163.8123 C.ar    1  UNL1       -0.0246
      6 C         142.0278  142.2393  164.8176 C.ar    1  UNL1       -0.0029
      7 C         142.2104  143.1544  162.5213 C.3     1  UNL1        0.0433
      8 C         141.9645  143.9413  161.2680 C.3     1  UNL1        0.0768
      9 N         140.8948  144.9570  160.9963 N.3     1  UNL1       -0.2720
     10 C         139.8068  145.4369  161.9106 C.3     1  UNL1        0.0768
     11 C         139.5198  145.0195  163.3225 C.3     1  UNL1        0.0433
     12 C         142.8782  139.9274  170.7537 C.3     1  UNL1        0.0754
     13 C         142.6658  140.1620  169.2875 C.ar    1  UNL1        0.1548
     14 C         141.9785  141.3461  168.6745 C.ar    1  UNL1        0.0580
     15 C         141.9913  141.1697  167.1850 C.ar    1  UNL1        0.1227
     16 N         142.6865  139.8766  166.8774 N.ar    1  UNL1       -0.0774
     17 O         143.1034  139.2539  168.1768 O.2     1  UNL1       -0.3578
     18 C         140.9158  145.5745  159.6295 C.3     1  UNL1        0.0730
     19 C         140.9741  144.7001  158.4121 C.3     1  UNL1        0.0294
     20 C         139.7495  143.9613  157.9599 C.3     1  UNL1        0.0666
     21 S         139.5216  142.5460  158.4016 S.3     1  UNL1       -0.0756
     22 C         139.0136  142.2645  159.7846 C.ar    1  UNL1        0.1932
     23 N         137.8382  142.9238  160.4433 N.ar    1  UNL1       -0.1221
     24 N         137.6899  142.3411  161.8175 N.ar    1  UNL1       -0.1282
     25 C         138.7736  141.3216  162.0081 C.ar    1  UNL1        0.1669
     26 N         139.5917  141.2743  160.7516 N.ar    1  UNL1       -0.2884
     27 C         140.7794  140.3917  160.5056 C.3     1  UNL1        0.1340
     28 C         138.9996  140.4947  163.2389 C.ar    1  UNL1        0.0390
     29 C         138.1089  140.6685  164.4333 C.ar    1  UNL1        0.0237
     30 C         138.3348  139.8416  165.6641 C.ar    1  UNL1        0.0990
     31 N         139.4515  138.8408  165.7008 N.ar    1  UNL1       -0.2423
     32 C         140.3422  138.6669  164.5065 C.ar    1  UNL1        0.0990
     33 C         140.1163  139.4939  163.2756 C.ar    1  UNL1        0.0237
@<TRIPOS>BOND
     1    12    13    1
     2    13    14   ar
     3    14    15   ar
     4    15     1    1
     5     1     2   ar
     6     2     3   ar
     7     3     4   ar
     8     4     5   ar
     9     5     6   ar
    10     5     7    1
    11     7     8    1
    12     8     9    1
    13     9    18    1
    14    18    19    1
    15    19    20    1
    16    20    21    1
    17    21    22    1
    18    22    23   ar
    19    23    24   ar
    20    24    25   ar
    21    25    28    1
    22    28    29   ar
    23    29    30   ar
    24    30    31   ar
    25    31    32   ar
    26    32    33   ar
    27    25    26   ar
    28    26    27    1
    29     9    10    1
    30    10    11    1
    31    15    16   ar
    32    16    17   ar
    33    17    13   ar
    34     6     1   ar
    35    26    22   ar
    36    11     4    1
    37    33    28   ar
@<TRIPOS>MOLECULE
*****
 33 37 0 0 0
SMALL
GASTEIGER

@<TRIPOS>ATOM
      1 C         139.1849  139.6791  166.4284 C.ar    1  UNL1        0.0206
      2 C         138.8960  138.2344  166.1462 C.ar    1  UNL1        0.0013
      3 C         138.8510  137.7412  164.7303 C.ar    1  UNL1       -0.0045
      4 C         139.0948  138.6928  163.5966 C.ar    1  UNL1       -0.0247
      5 C         139.3836  140.1373  163.8788 C.ar    1  UNL1       -0.0246
      6 C         139.4287  140.6305  165.2946 C.ar    1  UNL1       -0.0029
      7 C         139.6534  141.2449  162.9039 C.3     1  UNL1        0.0433
      8 C         139.7010  141.1814  161.4059 C.3     1  UNL1        0.0768
      9 N         139.4906  139.9947  160.5131 N.3     1  UNL1       -0.2720
     10 C         139.1806  138.5783  160.8975 C.3     1  UNL1        0.0768
     11 C         139.0044  137.9988  162.2698 C.3     1  UNL1        0.0433
     12 C         140.3123  142.5540  170.7114 C.3     1  UNL1        0.0754
     13 C         139.7481  141.4937  169.8130 C.ar    1  UNL1        0.1548
     14 C         139.9829  141.3725  168.3364 C.ar    1  UNL1        0.0580
     15 C         139.2299  140.1722  167.8443 C.ar    1  UNL1        0.1227
     16 N         138.5297  139.5515  169.0167 N.ar    1  UNL1       -0.0774
     17 O         138.8500  140.3682  170.2334 O.2     1  UNL1       -0.3578
     18 C         139.6054  140.2592  159.0411 C.3     1  UNL1        0.0730
     19 C         140.7387  139.6651  158.2583 C.3     1  UNL1        0.0294
     20 C         142.0979  140.2977  158.3086 C.3     1  UNL1        0.0666
     21 S         143.2173  139.6131  159.0354 S.3     1  UNL1       -0.0756
     22 C         143.0210  139.1486  160.4481 C.ar    1  UNL1        0.1932
     23 N         142.6533  137.7588  160.8762 N.ar    1  UNL1       -0.1221
     24 N         142.5630  137.7436  162.3734 N.ar    1  UNL1       -0.1282
     25 C         142.8748  139.1240  162.8706 C.ar    1  UNL1        0.1669
     26 N         143.1579  139.9924  161.6807 N.ar    1  UNL1       -0.2884
     27 C         143.5151  141.4488  161.7171 C.3     1  UNL1        0.1340
     28 C         142.8993  139.5596  164.3057 C.ar    1  UNL1        0.0390
     29 C         143.0191  141.0156  164.6457 C.ar    1  UNL1        0.0237
     30 C         143.0435  141.4512  166.0808 C.ar    1  UNL1        0.0990
     31 N         142.9483  140.4308  167.1761 N.ar    1  UNL1       -0.2423
     32 C         142.8286  138.9747  166.8361 C.ar    1  UNL1        0.0990
     33 C         142.8041  138.5392  165.4010 C.ar    1  UNL1        0.0237
@<TRIPOS>BOND
     1    12    13    1
     2    13    14   ar
     3    14    15   ar
     4    15     1    1
     5     1     2   ar
     6     2     3   ar
     7     3     4   ar
     8     4     5   ar
     9     5     6   ar
    10     5     7    1
    11     7     8    1
    12     8     9    1
    13     9    18    1
    14    18    19    1
    15    19    20    1
    16    20    21    1
    17    21    22    1
    18    22    23   ar
    19    23    24   ar
    20    24    25   ar
    21    25    28    1
    22    28    29   ar
    23    29    30   ar
    24    30    31   ar
    25    31    32   ar
    26    32    33   ar
    27    25    26   ar
    28    26    27    1
    29     9    10    1
    30    10    11    1
    31    15    16   ar
    32    16    17   ar
    33    17    13   ar
    34     6     1   ar
    35    26    22   ar
    36    11     4    1
    37    33    28   ar
@<TRIPOS>MOLECULE
*****
 33 37 0 0 0
SMALL
GASTEIGER

@<TRIPOS>ATOM
      1 C         139.6435  139.5567  166.9380 C.ar    1  UNL1        0.0206
      2 C         138.4387  138.9175  166.3136 C.ar    1  UNL1        0.0013
      3 C         138.5058  138.4072  164.9046 C.ar    1  UNL1       -0.0045
      4 C         139.7778  138.5363  164.1200 C.ar    1  UNL1       -0.0247
      5 C         140.9824  139.1756  164.7444 C.ar    1  UNL1       -0.0246
      6 C         140.9154  139.6858  166.1533 C.ar    1  UNL1       -0.0029
      7 C         142.3381  139.4021  164.1436 C.3     1  UNL1        0.0433
      8 C         142.8237  139.0453  162.7698 C.3     1  UNL1        0.0768
      9 N         142.0737  138.3739  161.6579 N.3     1  UNL1       -0.2720
     10 C         140.6528  137.8934  161.6448 C.3     1  UNL1        0.0768
     11 C         139.6310  137.9656  162.7406 C.3     1  UNL1        0.0433
     12 C         140.7731  142.1385  171.4032 C.3     1  UNL1        0.0754
     13 C         140.0955  141.2537  170.3994 C.ar    1  UNL1        0.1548
     14 C         140.5443  141.0167  168.9878 C.ar    1  UNL1        0.0580
     15 C         139.5763  140.0669  168.3469 C.ar    1  UNL1        0.1227
     16 N         138.5291  139.7169  169.3623 N.ar    1  UNL1       -0.0774
     17 O         138.8501  140.4503  170.6308 O.2     1  UNL1       -0.3578
     18 C         142.8468  138.1538  160.3915 C.3     1  UNL1        0.0730
     19 C         143.8932  139.1425  159.9700 C.3     1  UNL1        0.0294
     20 C         143.5217  140.2980  159.0886 C.3     1  UNL1        0.0666
     21 S         143.7413  141.7039  159.5629 S.3     1  UNL1       -0.0756
     22 C         143.1873  142.1445  160.8854 C.ar    1  UNL1        0.1932
     23 N         143.9841  142.4329  162.1231 N.ar    1  UNL1       -0.1221
     24 N         143.0285  142.8406  163.2050 N.ar    1  UNL1       -0.1282
     25 C         141.6411  142.8042  162.6360 C.ar    1  UNL1        0.1669
     26 N         141.7392  142.3739  161.2023 N.ar    1  UNL1       -0.2884
     27 C         140.5909  142.2031  160.2525 C.3     1  UNL1        0.1340
     28 C         140.3774  143.1392  163.3714 C.ar    1  UNL1        0.0390
     29 C         139.3181  142.0935  163.5573 C.ar    1  UNL1        0.0237
     30 C         138.0545  142.4285  164.2928 C.ar    1  UNL1        0.0990
     31 N         137.8500  143.8091  164.8424 N.ar    1  UNL1       -0.2423
     32 C         138.9093  144.8547  164.6565 C.ar    1  UNL1        0.0990
     33 C         140.1729  144.5197  163.9211 C.ar    1  UNL1        0.0237
@<TRIPOS>BOND
     1    12    13    1
     2    13    14   ar
     3    14    15   ar
     4    15     1    1
     5     1     2   ar
     6     2     3   ar
     7     3     4   ar
     8     4     5   ar
     9     5     6   ar
    10     5     7    1
    11     7     8    1
    12     8     9    1
    13     9    18    1
    14    18    19    1
    15    19    20    1
    16    20    21    1
    17    21    22    1
    18    22    23   ar
    19    23    24   ar
    20    24    25   ar
    21    25    28    1
    22    28    29   ar
    23    29    30   ar
    24    30    31   ar
    25    31    32   ar
    26    32    33   ar
    27    25    26   ar
    28    26    27    1
    29     9    10    1
    30    10    11    1
    31    15    16   ar
    32    16    17   ar
    33    17    13   ar
    34     6     1   ar
    35    26    22   ar
    36    11     4    1
    37    33    28   ar
@<TRIPOS>MOLECULE
*****
 33 37 0 0 0
SMALL
GASTEIGER

@<TRIPOS>ATOM
      1 C         139.6921  141.2190  166.5602 C.ar    1  UNL1        0.0206
      2 C         138.8266  140.3668  165.6801 C.ar    1  UNL1        0.0013
      3 C         138.5360  140.7956  164.2723 C.ar    1  UNL1       -0.0045
      4 C         139.1109  142.0768  163.7448 C.ar    1  UNL1       -0.0247
      5 C         139.9763  142.9289  164.6249 C.ar    1  UNL1       -0.0246
      6 C         140.2669  142.5002  166.0326 C.ar    1  UNL1       -0.0029
      7 C         140.6443  144.2322  164.3002 C.3     1  UNL1        0.0433
      8 C         140.6117  145.0051  163.0149 C.3     1  UNL1        0.0768
      9 N         139.9032  144.6655  161.7372 N.3     1  UNL1       -0.2720
     10 C         139.0522  143.4693  161.4290 C.3     1  UNL1        0.0768
     11 C         138.6996  142.3172  162.3224 C.3     1  UNL1        0.0433
     12 C         141.9430  140.7960  171.3178 C.3     1  UNL1        0.0754
     13 C         141.0172  140.5957  170.1548 C.ar    1  UNL1        0.1548
     14 C         141.1041  141.2914  168.8287 C.ar    1  UNL1        0.0580
     15 C         139.9826  140.7902  167.9679 C.ar    1  UNL1        0.1227
     16 N         139.2026  139.7846  168.7620 N.ar    1  UNL1       -0.0774
     17 O         139.8420  139.6645  170.1135 O.2     1  UNL1       -0.3578
     18 C         140.0673  145.6528  160.6199 C.3     1  UNL1        0.0730
     19 C         140.3956  145.1728  159.2371 C.3     1  UNL1        0.0294
     20 C         141.8144  144.8504  158.8721 C.3     1  UNL1        0.0666
     21 S         142.3560  143.4725  159.1126 S.3     1  UNL1       -0.0756
     22 C         142.7101  143.0381  160.5040 C.ar    1  UNL1        0.1932
     23 N         143.5729  143.7937  161.4708 N.ar    1  UNL1       -0.1221
     24 N         143.6596  142.9945  162.7372 N.ar    1  UNL1       -0.1282
     25 C         142.8505  141.7449  162.5530 C.ar    1  UNL1        0.1669
     26 N         142.2636  141.7719  161.1728 N.ar    1  UNL1       -0.2884
     27 C         141.3846  140.7177  160.5677 C.3     1  UNL1        0.1340
     28 C         142.6613  140.6590  163.5704 C.ar    1  UNL1        0.0390
     29 C         143.2785  140.7905  164.9312 C.ar    1  UNL1        0.0237
     30 C         143.0893  139.7046  165.9486 C.ar    1  UNL1        0.0990
     31 N         142.2831  138.4873  165.6052 N.ar    1  UNL1       -0.2423
     32 C         141.6660  138.3558  164.2444 C.ar    1  UNL1        0.0990
     33 C         141.8551  139.4417  163.2270 C.ar    1  UNL1        0.0237
@<TRIPOS>BOND
     1    12    13    1
     2    13    14   ar
     3    14    15   ar
     4    15     1    1
     5     1     2   ar
     6     2     3   ar
     7     3     4   ar
     8     4     5   ar
     9     5     6   ar
    10     5     7    1
    11     7     8    1
    12     8     9    1
    13     9    18    1
    14    18    19    1
    15    19    20    1
    16    20    21    1
    17    21    22    1
    18    22    23   ar
    19    23    24   ar
    20    24    25   ar
    21    25    28    1
    22    28    29   ar
    23    29    30   ar
    24    30    31   ar
    25    31    32   ar
    26    32    33   ar
    27    25    26   ar
    28    26    27    1
    29     9    10    1
    30    10    11    1
    31    15    16   ar
    32    16    17   ar
    33    17    13   ar
    34     6     1   ar
    35    26    22   ar
    36    11     4    1
    37    33    28   ar
@<TRIPOS>MOLECULE
*****
 33 37 0 0 0
SMALL
GASTEIGER

@<TRIPOS>ATOM
      1 C         142.2905  139.7804  166.0796 C.ar    1  UNL1        0.0206
      2 C         142.9218  138.6590  165.3088 C.ar    1  UNL1        0.0013
      3 C         143.1593  138.8026  163.8347 C.ar    1  UNL1       -0.0045
      4 C         142.7654  140.0677  163.1314 C.ar    1  UNL1       -0.0247
      5 C         142.1342  141.1889  163.9021 C.ar    1  UNL1       -0.0246
      6 C         141.8967  141.0454  165.3762 C.ar    1  UNL1       -0.0029
      7 C         141.6700  142.5240  163.3998 C.3     1  UNL1        0.0433
      8 C         141.7225  143.0673  162.0025 C.3     1  UNL1        0.0768
      9 N         142.2521  142.4099  160.7628 N.3     1  UNL1       -0.2720
     10 C         142.8600  141.0467  160.6138 C.3     1  UNL1        0.0768
     11 C         143.0885  140.0043  161.6679 C.3     1  UNL1        0.0433
     12 C         140.0714  140.0802  170.8614 C.3     1  UNL1        0.0754
     13 C         141.0331  139.7745  169.7517 C.ar    1  UNL1        0.1548
     14 C         140.8542  140.1330  168.3061 C.ar    1  UNL1        0.0580
     15 C         142.0531  139.6367  167.5537 C.ar    1  UNL1        0.1227
     16 N         142.9729  138.9714  168.5341 N.ar    1  UNL1       -0.0774
     17 O         142.3425  139.0565  169.8925 O.2     1  UNL1       -0.3578
     18 C         142.1618  143.2231  159.5056 C.3     1  UNL1        0.0730
     19 C         140.8361  143.7592  159.0526 C.3     1  UNL1        0.0294
     20 C         139.9143  142.8952  158.2440 C.3     1  UNL1        0.0666
     21 S         138.5646  142.5270  158.7849 S.3     1  UNL1       -0.0756
     22 C         138.3961  142.2370  160.2469 C.ar    1  UNL1        0.1932
     23 N         137.8406  143.1783  161.2742 N.ar    1  UNL1       -0.1221
     24 N         137.8546  142.4779  162.6005 N.ar    1  UNL1       -0.1282
     25 C         138.4188  141.1036  162.3929 C.ar    1  UNL1        0.1669
     26 N         138.7534  140.9547  160.9383 N.ar    1  UNL1       -0.2884
     27 C         139.3421  139.7373  160.2891 C.3     1  UNL1        0.1340
     28 C         138.6141  140.0612  163.4537 C.ar    1  UNL1        0.0390
     29 C         139.2914  138.7659  163.1168 C.ar    1  UNL1        0.0237
     30 C         139.4867  137.7236  164.1776 C.ar    1  UNL1        0.0990
     31 N         139.0047  137.9763  165.5753 N.ar    1  UNL1       -0.2423
     32 C         138.3273  139.2716  165.9122 C.ar    1  UNL1        0.0990
     33 C         138.1320  140.3140  164.8514 C.ar    1  UNL1        0.0237
@<TRIPOS>BOND
     1    12    13    1
     2    13    14   ar
     3    14    15   ar
     4    15     1    1
     5     1     2   ar
     6     2     3   ar
     7     3     4   ar
     8     4     5   ar
     9     5     6   ar
    10     5     7    1
    11     7     8    1
    12     8     9    1
    13     9    18    1
    14    18    19    1
    15    19    20    1
    16    20    21    1
    17    21    22    1
    18    22    23   ar
    19    23    24   ar
    20    24    25   ar
    21    25    28    1
    22    28    29   ar
    23    29    30   ar
    24    30    31   ar
    25    31    32   ar
    26    32    33   ar
    27    25    26   ar
    28    26    27    1
    29     9    10    1
    30    10    11    1
    31    15    16   ar
    32    16    17   ar
    33    17    13   ar
    34     6     1   ar
    35    26    22   ar
    36    11     4    1
    37    33    28   ar
@<TRIPOS>MOLECULE
*****
 33 37 0 0 0
SMALL
GASTEIGER

@<TRIPOS>ATOM
      1 C         141.3860  141.1303  167.2266 C.ar    1  UNL1        0.0206
      2 C         142.4974  142.1367  167.1843 C.ar    1  UNL1        0.0013
      3 C         143.4427  142.1617  166.0198 C.ar    1  UNL1       -0.0045
      4 C         143.2763  141.1803  164.8976 C.ar    1  UNL1       -0.0247
      5 C         142.1649  140.1740  164.9399 C.ar    1  UNL1       -0.0246
      6 C         141.2197  140.1489  166.1043 C.ar    1  UNL1       -0.0029
      7 C         141.8235  139.1148  163.9341 C.3     1  UNL1        0.0433
      8 C         142.5093  138.8004  162.6376 C.3     1  UNL1        0.0768
      9 N         143.7058  139.4676  162.0267 N.3     1  UNL1       -0.2720
     10 C         144.5121  140.6139  162.5614 C.3     1  UNL1        0.0768
     11 C         144.3210  141.3761  163.8391 C.3     1  UNL1        0.0433
     12 C         137.5812  139.6505  170.5754 C.3     1  UNL1        0.0754
     13 C         138.6919  140.4251  169.9304 C.ar    1  UNL1        0.1548
     14 C         139.4089  140.0521  168.6666 C.ar    1  UNL1        0.0580
     15 C         140.4408  141.1053  168.3910 C.ar    1  UNL1        0.1227
     16 N         140.3617  142.1292  169.4844 N.ar    1  UNL1       -0.0774
     17 O         139.2808  141.7088  170.4357 O.2     1  UNL1       -0.3578
     18 C         144.1555  138.9154  160.7065 C.3     1  UNL1        0.0730
     19 C         143.4766  139.3497  159.4414 C.3     1  UNL1        0.0294
     20 C         143.8962  140.6200  158.7630 C.3     1  UNL1        0.0666
     21 S         142.9164  141.7445  158.6043 S.3     1  UNL1       -0.0756
     22 C         142.5259  142.5724  159.7926 C.ar    1  UNL1        0.1932
     23 N         143.3190  143.7026  160.3788 N.ar    1  UNL1       -0.1221
     24 N         142.5570  144.2441  161.5519 N.ar    1  UNL1       -0.1282
     25 C         141.2930  143.4486  161.6907 C.ar    1  UNL1        0.1669
     26 N         141.2737  142.4154  160.6034 N.ar    1  UNL1       -0.2884
     27 C         140.1921  141.4030  160.3682 C.3     1  UNL1        0.1340
     28 C         140.2340  143.6507  162.7337 C.ar    1  UNL1        0.0390
     29 C         140.5625  143.4536  164.1840 C.ar    1  UNL1        0.0237
     30 C         139.5035  143.6558  165.2270 C.ar    1  UNL1        0.0990
     31 N         138.1162  144.0550  164.8198 N.ar    1  UNL1       -0.2423
     32 C         137.7878  144.2521  163.3695 C.ar    1  UNL1        0.0990
     33 C         138.8467  144.0500  162.3265 C.ar    1  UNL1        0.0237
@<TRIPOS>BOND
     1    12    13    1
     2    13    14   ar
     3    14    15   ar
     4    15     1    1
     5     1     2   ar
     6     2     3   ar
     7     3     4   ar
     8     4     5   ar
     9     5     6   ar
    10     5     7    1
    11     7     8    1
    12     8     9    1
    13     9    18    1
    14    18    19    1
    15    19    20    1
    16    20    21    1
    17    21    22    1
    18    22    23   ar
    19    23    24   ar
    20    24    25   ar
    21    25    28    1
    22    28    29   ar
    23    29    30   ar
    24    30    31   ar
    25    31    32   ar
    26    32    33   ar
    27    25    26   ar
    28    26    27    1
    29     9    10    1
    30    10    11    1
    31    15    16   ar
    32    16    17   ar
    33    17    13   ar
    34     6     1   ar
    35    26    22   ar
    36    11     4    1
    37    33    28   ar
@<TRIPOS>MOLECULE
*****
 33 37 0 0 0
SMALL
GASTEIGER

@<TRIPOS>ATOM
      1 C         139.9771  140.6431  166.2165 C.ar    1  UNL1        0.0206
      2 C         139.0165  139.4914  166.2447 C.ar    1  UNL1        0.0013
      3 C         138.8147  138.6528  165.0175 C.ar    1  UNL1       -0.0045
      4 C         139.5736  138.9660  163.7620 C.ar    1  UNL1       -0.0247
      5 C         140.5341  140.1177  163.7339 C.ar    1  UNL1       -0.0246
      6 C         140.7359  140.9562  164.9610 C.ar    1  UNL1       -0.0029
      7 C         141.3845  140.5986  162.5956 C.3     1  UNL1        0.0433
      8 C         141.4843  140.0466  161.2044 C.3     1  UNL1        0.0768
      9 N         140.7584  138.8774  160.6080 N.3     1  UNL1       -0.2720
     10 C         139.7533  137.9713  161.2553 C.3     1  UNL1        0.0768
     11 C         139.2260  138.0107  162.6590 C.3     1  UNL1        0.0433
     12 C         140.6662  142.1024  171.2441 C.3     1  UNL1        0.0754
     13 C         140.4956  142.1524  169.7547 C.ar    1  UNL1        0.1548
     14 C         140.3076  140.9718  168.8486 C.ar    1  UNL1        0.0580
     15 C         140.1789  141.4816  167.4438 C.ar    1  UNL1        0.1227
     16 N         140.2874  142.9773  167.4816 N.ar    1  UNL1       -0.0774
     17 O         140.4831  143.3918  168.9098 O.2     1  UNL1       -0.3578
     18 C         141.0800  138.5740  159.1746 C.3     1  UNL1        0.0730
     19 C         139.9798  138.5067  158.1571 C.3     1  UNL1        0.0294
     20 C         139.6201  139.7251  157.3596 C.3     1  UNL1        0.0666
     21 S         138.4300  140.5513  157.7480 S.3     1  UNL1       -0.0756
     22 C         138.1720  140.8621  159.1925 C.ar    1  UNL1        0.1932
     23 N         137.3326  140.0492  160.1331 N.ar    1  UNL1       -0.1221
     24 N         137.3499  140.7251  161.4720 N.ar    1  UNL1       -0.1282
     25 C         138.2000  141.9558  161.3590 C.ar    1  UNL1        0.1669
     26 N         138.7080  142.0405  159.9502 N.ar    1  UNL1       -0.2884
     27 C         139.5962  143.1150  159.3963 C.3     1  UNL1        0.1340
     28 C         138.4909  142.9307  162.4613 C.ar    1  UNL1        0.0390
     29 C         139.6331  143.8939  162.3286 C.ar    1  UNL1        0.0237
     30 C         139.9240  144.8688  163.4308 C.ar    1  UNL1        0.0990
     31 N         139.0728  144.8805  164.6658 N.ar    1  UNL1       -0.2423
     32 C         137.9305  143.9173  164.7985 C.ar    1  UNL1        0.0990
     33 C         137.6396  142.9425  163.6962 C.ar    1  UNL1        0.0237
@<TRIPOS>BOND
     1    12    13    1
     2    13    14   ar
     3    14    15   ar
     4    15     1    1
     5     1     2   ar
     6     2     3   ar
     7     3     4   ar
     8     4     5   ar
     9     5     6   ar
    10     5     7    1
    11     7     8    1
    12     8     9    1
    13     9    18    1
    14    18    19    1
    15    19    20    1
    16    20    21    1
    17    21    22    1
    18    22    23   ar
    19    23    24   ar
    20    24    25   ar
    21    25    28    1
    22    28    29   ar
    23    29    30   ar
    24    30    31   ar
    25    31    32   ar
    26    32    33   ar
    27    25    26   ar
    28    26    27    1
    29     9    10    1
    30    10    11    1
    31    15    16   ar
    32    16    17   ar
    33    17    13   ar
    34     6     1   ar
    35    26    22   ar
    36    11     4    1
    37    33    28   ar
@<TRIPOS>MOLECULE
*****
 33 37 0 0 0
SMALL
GASTEIGER

@<TRIPOS>ATOM
      1 C         140.0713  140.9571  166.7763 C.ar    1  UNL1        0.0206
      2 C         139.0389  139.8760  166.6525 C.ar    1  UNL1        0.0013
      3 C         138.3211  139.6698  165.3515 C.ar    1  UNL1       -0.0045
      4 C         138.6359  140.5449  164.1745 C.ar    1  UNL1       -0.0247
      5 C         139.6682  141.6259  164.2984 C.ar    1  UNL1       -0.0246
      6 C         140.3860  141.8320  165.5993 C.ar    1  UNL1       -0.0029
      7 C         140.1301  142.6019  163.2571 C.3     1  UNL1        0.0433
      8 C         139.6734  142.7378  161.8347 C.3     1  UNL1        0.0768
      9 N         138.6424  141.9313  161.1025 N.3     1  UNL1       -0.2720
     10 C         137.8131  140.7897  161.6115 C.3     1  UNL1        0.0768
     11 C         137.8102  140.1727  162.9787 C.3     1  UNL1        0.0433
     12 C         143.0212  143.0895  170.6014 C.3     1  UNL1        0.0754
     13 C         142.1449  142.1433  169.8355 C.ar    1  UNL1        0.1548
     14 C         141.6178  142.3572  168.4475 C.ar    1  UNL1        0.0580
     15 C         140.7890  141.1631  168.0773 C.ar    1  UNL1        0.1227
     16 N         140.8038  140.2112  169.2364 N.ar    1  UNL1       -0.0774
     17 O         141.6418  140.8170  170.3230 O.2     1  UNL1       -0.3578
     18 C         138.4097  142.3175  159.6718 C.3     1  UNL1        0.0730
     19 C         138.2884  141.2562  158.6186 C.3     1  UNL1        0.0294
     20 C         139.4499  140.9575  157.7176 C.3     1  UNL1        0.0666
     21 S         140.3393  139.7843  158.0046 S.3     1  UNL1       -0.0756
     22 C         140.4397  139.2428  159.3999 C.ar    1  UNL1        0.1932
     23 N         139.6202  138.1248  159.9728 N.ar    1  UNL1       -0.1221
     24 N         140.0512  137.9153  161.3942 N.ar    1  UNL1       -0.1282
     25 C         141.1373  138.9038  161.6996 C.ar    1  UNL1        0.1669
     26 N         141.3774  139.7243  160.4671 N.ar    1  UNL1       -0.2884
     27 C         142.3792  140.8318  160.3265 C.3     1  UNL1        0.1340
     28 C         141.8569  139.0469  163.0080 C.ar    1  UNL1        0.0390
     29 C         141.5408  138.1188  164.1432 C.ar    1  UNL1        0.0237
     30 C         142.2604  138.2618  165.4515 C.ar    1  UNL1        0.0990
     31 N         143.2961  139.3328  165.6247 N.ar    1  UNL1       -0.2423
     32 C         143.6122  140.2609  164.4895 C.ar    1  UNL1        0.0990
     33 C         142.8926  140.1179  163.1811 C.ar    1  UNL1        0.0237
@<TRIPOS>BOND
     1    12    13    1
     2    13    14   ar
     3    14    15   ar
     4    15     1    1
     5     1     2   ar
     6     2     3   ar
     7     3     4   ar
     8     4     5   ar
     9     5     6   ar
    10     5     7    1
    11     7     8    1
    12     8     9    1
    13     9    18    1
    14    18    19    1
    15    19    20    1
    16    20    21    1
    17    21    22    1
    18    22    23   ar
    19    23    24   ar
    20    24    25   ar
    21    25    28    1
    22    28    29   ar
    23    29    30   ar
    24    30    31   ar
    25    31    32   ar
    26    32    33   ar
    27    25    26   ar
    28    26    27    1
    29     9    10    1
    30    10    11    1
    31    15    16   ar
    32    16    17   ar
    33    17    13   ar
    34     6     1   ar
    35    26    22   ar
    36    11     4    1
    37    33    28   ar
