@<TRIPOS>MOLECULE
*****
 33 37 0 0 0
SMALL
GASTEIGER

@<TRIPOS>ATOM
      1 C         141.0634  142.6235  166.5940 C.2     1  UNL1       -0.0138
      2 C         142.5108  142.3789  166.2851 C.2     1  UNL1        0.0039
      3 C         143.0575  142.7237  164.9315 C.2     1  UNL1        0.1174
      4 C         142.1568  143.3130  163.8867 C.2     1  UNL1        0.2360
      5 N         142.4097  143.7503  162.4743 N.2     1  UNL1       -0.0297
      6 C         141.1187  144.2651  161.9103 C.2     1  UNL1        0.3923
      7 N         140.0679  144.1459  162.9741 N.2     1  UNL1       -0.0336
      8 C         140.7095  143.5575  164.1955 C.2     1  UNL1        0.2178
      9 C         140.1628  143.2127  165.5492 C.3     1  UNL1        0.1040
     10 C         140.9143  144.8044  160.5256 C.2     1  UNL1        0.1883
     11 N         139.8939  145.8260  160.1189 N.2     1  UNL1       -0.0797
     12 O         140.0434  146.0697  158.6465 O.2     1  UNL1       -0.3845
     13 C         141.1562  145.1988  158.1430 C.3     1  UNL1        0.1669
     14 C         142.2841  144.2763  157.7871 C.3     1  UNL1        0.0431
     15 C         142.7728  144.2006  156.3710 C.3     1  UNL1        0.0037
     16 C         142.1335  145.0475  155.3108 C.3     1  UNL1        0.0002
     17 C         141.0055  145.9700  155.6666 C.3     1  UNL1        0.0037
     18 C         140.5169  146.0456  157.0828 C.3     1  UNL1        0.0431
     19 C         141.6944  144.4167  159.3044 C.3     1  UNL1        0.0999
     20 C         140.0191  140.8910  168.2242 C.ar    1  UNL1        0.0711
     21 C         139.4724  140.5462  169.5779 C.ar    1  UNL1        0.0038
     22 C         139.4234  141.5892  170.6548 C.ar    1  UNL1       -0.0001
     23 C         139.9211  142.9769  170.3781 C.ar    1  UNL1       -0.0000
     24 C         140.4678  143.3216  169.0245 C.ar    1  UNL1       -0.0004
     25 C         140.5168  142.2787  167.9476 C.ar    1  UNL1        0.0004
     26 F         140.1171  138.8050  166.0703 F       1  UNL1       -0.1659
     27 C         140.0680  139.8480  167.1473 C.3     1  UNL1        0.4186
     28 F         138.6858  140.2337  166.7108 F       1  UNL1       -0.1659
     29 F         141.4503  139.4623  167.5837 F       1  UNL1       -0.1659
     30 C         144.5048  142.4792  164.6226 C.3     1  UNL1        0.4221
     31 F         145.9521  142.2347  164.3138 F       1  UNL1       -0.1657
     32 F         144.1226  141.3227  163.7472 F       1  UNL1       -0.1657
     33 F         144.8870  143.6357  165.4981 F       1  UNL1       -0.1657
@<TRIPOS>BOND
     1    26    27    1
     2    27    28    1
     3    27    29    1
     4    27    20    1
     5    20    21   ar
     6    21    22   ar
     7    22    23   ar
     8    23    24   ar
     9    24    25   ar
    10    25     1    1
    11     1     2    2
    12     2     3    1
    13     3    30    1
    14    30    31    1
    15    30    32    1
    16    30    33    1
    17     3     4    2
    18     4     5    1
    19     5     6    2
    20     6    10    1
    21    10    11    2
    22    11    12    1
    23    12    13    1
    24    13    14    1
    25    14    15    1
    26    15    16    1
    27    16    17    1
    28    17    18    1
    29    13    19    1
    30     6     7    1
    31     7     8    2
    32     8     9    1
    33    25    20   ar
    34     9     1    1
    35     8     4    1
    36    19    10    1
    37    18    13    1
@<TRIPOS>MOLECULE
*****
 33 37 0 0 0
SMALL
GASTEIGER

@<TRIPOS>ATOM
      1 C         140.2607  141.2103  166.9515 C.2     1  UNL1       -0.0138
      2 C         139.5688  139.8891  167.1118 C.2     1  UNL1        0.0039
      3 C         138.8804  139.2558  165.9392 C.2     1  UNL1        0.1174
      4 C         138.8839  139.9437  164.6062 C.2     1  UNL1        0.2360
      5 N         138.2941  139.5654  163.2799 N.2     1  UNL1       -0.0297
      6 C         138.6215  140.6527  162.3000 C.2     1  UNL1        0.3923
      7 N         139.4137  141.7030  163.0205 N.2     1  UNL1       -0.0336
      8 C         139.5759  141.2648  164.4459 C.2     1  UNL1        0.2178
      9 C         140.2643  141.8981  165.6185 C.3     1  UNL1        0.1040
     10 C         138.2262  140.6842  160.8534 C.2     1  UNL1        0.1883
     11 N         137.3496  139.6858  160.1569 N.2     1  UNL1       -0.0797
     12 O         137.2197  140.1042  158.7223 O.2     1  UNL1       -0.3845
     13 C         138.0158  141.3613  158.5321 C.3     1  UNL1        0.1669
     14 C         138.8490  142.6080  158.4941 C.3     1  UNL1        0.0431
     15 C         138.9971  143.3723  157.2120 C.3     1  UNL1        0.0037
     16 C         138.3120  142.8898  155.9678 C.3     1  UNL1        0.0002
     17 C         137.4789  141.6431  156.0058 C.3     1  UNL1        0.0037
     18 C         137.3308  140.8788  157.2879 C.3     1  UNL1        0.0431
     19 C         138.6379  141.7197  159.8491 C.3     1  UNL1        0.0999
     20 C         142.2151  141.2462  168.6630 C.ar    1  UNL1        0.0711
     21 C         142.9034  141.8795  169.8356 C.ar    1  UNL1        0.0038
     22 C         142.3258  143.1102  170.4693 C.ar    1  UNL1       -0.0001
     23 C         141.0599  143.7076  169.9305 C.ar    1  UNL1       -0.0000
     24 C         140.3715  143.0743  168.7578 C.ar    1  UNL1       -0.0004
     25 C         140.9491  141.8436  168.1241 C.ar    1  UNL1        0.0004
     26 F         143.3703  138.7846  167.3955 F       1  UNL1       -0.1659
     27 C         142.7927  140.0153  168.0292 C.3     1  UNL1        0.4186
     28 F         142.2414  139.1810  169.1472 F       1  UNL1       -0.1659
     29 F         143.3440  140.8498  166.9113 F       1  UNL1       -0.1659
     30 C         138.1884  137.9347  166.0995 C.3     1  UNL1        0.4221
     31 F         137.4965  136.6135  166.2598 F       1  UNL1       -0.1657
     32 F         137.1973  138.5668  167.0312 F       1  UNL1       -0.1657
     33 F         139.1795  137.3025  165.1678 F       1  UNL1       -0.1657
@<TRIPOS>BOND
     1    26    27    1
     2    27    28    1
     3    27    29    1
     4    27    20    1
     5    20    21   ar
     6    21    22   ar
     7    22    23   ar
     8    23    24   ar
     9    24    25   ar
    10    25     1    1
    11     1     2    2
    12     2     3    1
    13     3    30    1
    14    30    31    1
    15    30    32    1
    16    30    33    1
    17     3     4    2
    18     4     5    1
    19     5     6    2
    20     6    10    1
    21    10    11    2
    22    11    12    1
    23    12    13    1
    24    13    14    1
    25    14    15    1
    26    15    16    1
    27    16    17    1
    28    17    18    1
    29    13    19    1
    30     6     7    1
    31     7     8    2
    32     8     9    1
    33    25    20   ar
    34     9     1    1
    35     8     4    1
    36    19    10    1
    37    18    13    1
@<TRIPOS>MOLECULE
*****
 33 37 0 0 0
SMALL
GASTEIGER

@<TRIPOS>ATOM
      1 C         141.5940  142.2757  166.4590 C.2     1  UNL1       -0.0138
      2 C         140.2280  142.8927  166.4029 C.2     1  UNL1        0.0039
      3 C         139.7401  143.5201  165.1307 C.2     1  UNL1        0.1174
      4 C         140.6183  143.5305  163.9147 C.2     1  UNL1        0.2360
      5 N         140.4105  144.0713  162.5311 N.2     1  UNL1       -0.0297
      6 C         141.6481  143.7885  161.7322 C.2     1  UNL1        0.3923
      7 N         142.6208  143.0729  162.6220 N.2     1  UNL1       -0.0336
      8 C         141.9843  142.9134  163.9709 C.2     1  UNL1        0.2178
      9 C         142.4722  142.2860  165.2430 C.3     1  UNL1        0.1040
     10 C         141.8734  144.1567  160.2957 C.2     1  UNL1        0.1883
     11 N         143.0640  143.7790  159.4650 N.2     1  UNL1       -0.0797
     12 O         142.8742  144.3561  158.0935 O.2     1  UNL1       -0.3845
     13 C         141.5663  145.0906  158.0766 C.3     1  UNL1        0.1669
     14 C         140.2421  145.7825  158.2099 C.3     1  UNL1        0.0431
     15 C         139.6558  146.5120  157.0378 C.3     1  UNL1        0.0037
     16 C         140.3936  146.5496  155.7323 C.3     1  UNL1        0.0002
     17 C         141.7178  145.8578  155.5990 C.3     1  UNL1        0.0037
     18 C         142.3041  145.1282  156.7711 C.3     1  UNL1        0.0431
     19 C         140.9478  144.9673  159.4376 C.3     1  UNL1        0.0999
     20 C         141.6547  140.2567  168.0930 C.ar    1  UNL1        0.0711
     21 C         142.1426  139.6293  169.3652 C.ar    1  UNL1        0.0038
     22 C         143.0576  140.3935  170.2754 C.ar    1  UNL1       -0.0001
     23 C         143.4847  141.7851  169.9136 C.ar    1  UNL1       -0.0000
     24 C         142.9968  142.4125  168.6415 C.ar    1  UNL1       -0.0004
     25 C         142.0819  141.6483  167.7312 C.ar    1  UNL1        0.0004
     26 F         139.8247  138.7281  166.2723 F       1  UNL1       -0.1659
     27 C         140.7397  139.4924  167.1827 C.3     1  UNL1        0.4186
     28 F         139.5530  140.0155  167.9363 F       1  UNL1       -0.1659
     29 F         141.9264  138.9693  166.4290 F       1  UNL1       -0.1659
     30 C         138.3741  144.1372  165.0746 C.3     1  UNL1        0.4221
     31 F         137.0080  144.7542  165.0184 F       1  UNL1       -0.1657
     32 F         138.9290  145.4161  165.6280 F       1  UNL1       -0.1657
     33 F         137.8191  142.8582  164.5211 F       1  UNL1       -0.1657
@<TRIPOS>BOND
     1    26    27    1
     2    27    28    1
     3    27    29    1
     4    27    20    1
     5    20    21   ar
     6    21    22   ar
     7    22    23   ar
     8    23    24   ar
     9    24    25   ar
    10    25     1    1
    11     1     2    2
    12     2     3    1
    13     3    30    1
    14    30    31    1
    15    30    32    1
    16    30    33    1
    17     3     4    2
    18     4     5    1
    19     5     6    2
    20     6    10    1
    21    10    11    2
    22    11    12    1
    23    12    13    1
    24    13    14    1
    25    14    15    1
    26    15    16    1
    27    16    17    1
    28    17    18    1
    29    13    19    1
    30     6     7    1
    31     7     8    2
    32     8     9    1
    33    25    20   ar
    34     9     1    1
    35     8     4    1
    36    19    10    1
    37    18    13    1
@<TRIPOS>MOLECULE
*****
 33 37 0 0 0
SMALL
GASTEIGER

@<TRIPOS>ATOM
      1 C         140.2561  141.8774  162.6774 C.2     1  UNL1       -0.0138
      2 C         141.4118  142.7263  163.1175 C.2     1  UNL1        0.0039
      3 C         141.8863  143.8549  162.2508 C.2     1  UNL1        0.1174
      4 C         141.2052  144.1345  160.9440 C.2     1  UNL1        0.2360
      5 N         141.4488  145.1701  159.8865 N.2     1  UNL1       -0.0297
      6 C         140.4437  144.9612  158.7929 C.2     1  UNL1        0.3923
      7 N         139.5789  143.7966  159.1744 N.2     1  UNL1       -0.0336
      8 C         140.0495  143.2857  160.5039 C.2     1  UNL1        0.2178
      9 C         139.5750  142.1571  161.3706 C.3     1  UNL1        0.1040
     10 C         140.3244  145.7742  157.5380 C.2     1  UNL1        0.1883
     11 N         139.4386  146.9689  157.3423 N.2     1  UNL1       -0.0797
     12 O         139.6366  147.4684  155.9419 O.2     1  UNL1       -0.3845
     13 C         140.6449  146.5825  155.2720 C.3     1  UNL1        0.1669
     14 C         141.6601  145.6164  154.7370 C.3     1  UNL1        0.0431
     15 C         142.1561  145.7535  153.3281 C.3     1  UNL1        0.0037
     16 C         141.6370  146.8566  152.4541 C.3     1  UNL1        0.0002
     17 C         140.6219  147.8226  152.9891 C.3     1  UNL1        0.0037
     18 C         140.1258  147.6855  154.3980 C.3     1  UNL1        0.0431
     19 C         141.0699  145.5354  156.2584 C.3     1  UNL1        0.0999
     20 C         138.6891  140.9803  164.5455 C.ar    1  UNL1        0.0711
     21 C         138.2145  139.8518  165.4122 C.ar    1  UNL1        0.0038
     22 C         138.8325  138.4917  165.2774 C.ar    1  UNL1       -0.0001
     23 C         139.9251  138.2602  164.2761 C.ar    1  UNL1       -0.0000
     24 C         140.3996  139.3887  163.4094 C.ar    1  UNL1       -0.0004
     25 C         139.7816  140.7488  163.5441 C.ar    1  UNL1        0.0004
     26 F         137.4530  143.7006  164.8149 F       1  UNL1       -0.1659
     27 C         138.0710  142.3405  164.6802 C.3     1  UNL1        0.4186
     28 F         137.0290  141.9673  163.6679 F       1  UNL1       -0.1659
     29 F         139.1131  142.7137  165.6925 F       1  UNL1       -0.1659
     30 C         143.0420  144.7037  162.6909 C.3     1  UNL1        0.4221
     31 F         144.1977  145.5526  163.1310 F       1  UNL1       -0.1657
     32 F         143.9668  143.8869  161.8380 F       1  UNL1       -0.1657
     33 F         142.1172  145.5206  163.5438 F       1  UNL1       -0.1657
@<TRIPOS>BOND
     1    26    27    1
     2    27    28    1
     3    27    29    1
     4    27    20    1
     5    20    21   ar
     6    21    22   ar
     7    22    23   ar
     8    23    24   ar
     9    24    25   ar
    10    25     1    1
    11     1     2    2
    12     2     3    1
    13     3    30    1
    14    30    31    1
    15    30    32    1
    16    30    33    1
    17     3     4    2
    18     4     5    1
    19     5     6    2
    20     6    10    1
    21    10    11    2
    22    11    12    1
    23    12    13    1
    24    13    14    1
    25    14    15    1
    26    15    16    1
    27    16    17    1
    28    17    18    1
    29    13    19    1
    30     6     7    1
    31     7     8    2
    32     8     9    1
    33    25    20   ar
    34     9     1    1
    35     8     4    1
    36    19    10    1
    37    18    13    1
@<TRIPOS>MOLECULE
*****
 33 37 0 0 0
SMALL
GASTEIGER

@<TRIPOS>ATOM
      1 C         140.4692  141.2214  165.9316 C.2     1  UNL1       -0.0138
      2 C         140.9044  142.6150  165.5874 C.2     1  UNL1        0.0039
      3 C         140.6375  143.1675  164.2186 C.2     1  UNL1        0.1174
      4 C         139.9353  142.3265  163.1941 C.2     1  UNL1        0.2360
      5 N         139.5377  142.5986  161.7736 N.2     1  UNL1       -0.0297
      6 C         138.8568  141.3733  161.2400 C.2     1  UNL1        0.3923
      7 N         138.8335  140.3438  162.3307 N.2     1  UNL1       -0.0336
      8 C         139.5001  140.9329  163.5384 C.2     1  UNL1        0.2178
      9 C         139.7671  140.3804  164.9071 C.3     1  UNL1        0.1040
     10 C         138.2972  141.2067  159.8583 C.2     1  UNL1        0.1883
     11 N         137.5201  140.0251  159.3583 N.2     1  UNL1       -0.0797
     12 O         137.1592  140.2806  157.9249 O.2     1  UNL1       -0.3845
     13 C         137.7133  141.6201  157.5390 C.3     1  UNL1        0.1669
     14 C         138.3228  142.9696  157.2997 C.3     1  UNL1        0.0431
     15 C         138.1958  143.6220  155.9551 C.3     1  UNL1        0.0037
     16 C         137.4593  142.9250  154.8498 C.3     1  UNL1        0.0002
     17 C         136.8498  141.5755  155.0891 C.3     1  UNL1        0.0037
     18 C         136.9768  140.9231  156.4337 C.3     1  UNL1        0.0431
     19 C         138.4166  142.1924  158.7339 C.3     1  UNL1        0.0999
     20 C         142.0270  139.9596  167.5843 C.ar    1  UNL1        0.0711
     21 C         142.2939  139.4070  168.9530 C.ar    1  UNL1        0.0038
     22 C         141.2701  139.5639  170.0378 C.ar    1  UNL1       -0.0001
     23 C         139.9792  140.2733  169.7540 C.ar    1  UNL1       -0.0000
     24 C         139.7123  140.8258  168.3852 C.ar    1  UNL1       -0.0004
     25 C         140.7362  140.6689  167.3004 C.ar    1  UNL1        0.0004
     26 F         144.0748  139.6458  165.4144 F       1  UNL1       -0.1659
     27 C         143.0510  139.8027  166.4993 C.3     1  UNL1        0.4186
     28 F         143.5648  141.1827  166.7847 F       1  UNL1       -0.1659
     29 F         142.5371  138.4227  166.2139 F       1  UNL1       -0.1659
     30 C         141.0727  144.5611  163.8743 C.3     1  UNL1        0.4221
     31 F         141.5079  145.9546  163.5301 F       1  UNL1       -0.1657
     32 F         142.2264  144.0074  163.0918 F       1  UNL1       -0.1657
     33 F         139.9190  145.1147  164.6569 F       1  UNL1       -0.1657
@<TRIPOS>BOND
     1    26    27    1
     2    27    28    1
     3    27    29    1
     4    27    20    1
     5    20    21   ar
     6    21    22   ar
     7    22    23   ar
     8    23    24   ar
     9    24    25   ar
    10    25     1    1
    11     1     2    2
    12     2     3    1
    13     3    30    1
    14    30    31    1
    15    30    32    1
    16    30    33    1
    17     3     4    2
    18     4     5    1
    19     5     6    2
    20     6    10    1
    21    10    11    2
    22    11    12    1
    23    12    13    1
    24    13    14    1
    25    14    15    1
    26    15    16    1
    27    16    17    1
    28    17    18    1
    29    13    19    1
    30     6     7    1
    31     7     8    2
    32     8     9    1
    33    25    20   ar
    34     9     1    1
    35     8     4    1
    36    19    10    1
    37    18    13    1
@<TRIPOS>MOLECULE
*****
 33 37 0 0 0
SMALL
GASTEIGER

@<TRIPOS>ATOM
      1 C         142.9230  141.7669  165.5005 C.2     1  UNL1       -0.0138
      2 C         142.2658  143.0255  165.0168 C.2     1  UNL1        0.0039
      3 C         142.2485  143.3474  163.5518 C.2     1  UNL1        0.1174
      4 C         142.8885  142.4106  162.5705 C.2     1  UNL1        0.2360
      5 N         143.0274  142.4619  161.0778 N.2     1  UNL1       -0.0297
      6 C         143.7704  141.2351  160.6390 C.2     1  UNL1        0.3923
      7 N         144.0908  140.4255  161.8605 N.2     1  UNL1       -0.0336
      8 C         143.5458  141.1521  163.0542 C.2     1  UNL1        0.2178
      9 C         143.5630  140.8302  164.5192 C.3     1  UNL1        0.1040
     10 C         144.1300  140.8801  159.2267 C.2     1  UNL1        0.1883
     11 N         143.6801  139.6575  158.4830 N.2     1  UNL1       -0.0797
     12 O         144.2746  139.7071  157.1068 O.2     1  UNL1       -0.3845
     13 C         145.0920  140.9604  156.9998 C.3     1  UNL1        0.1669
     14 C         145.8672  142.2438  157.0411 C.3     1  UNL1        0.0431
     15 C         146.6385  142.6932  155.8357 C.3     1  UNL1        0.0037
     16 C         146.6345  141.8592  154.5889 C.3     1  UNL1        0.0002
     17 C         145.8593  140.5758  154.5476 C.3     1  UNL1        0.0037
     18 C         145.0880  140.1264  155.7531 C.3     1  UNL1        0.0431
     19 C         145.0026  141.6853  158.3100 C.3     1  UNL1        0.0999
     20 C         142.4814  140.0992  167.4431 C.ar    1  UNL1        0.0711
     21 C         142.4987  139.7774  168.9081 C.ar    1  UNL1        0.0038
     22 C         142.9748  140.8013  169.8953 C.ar    1  UNL1       -0.0001
     23 C         143.4337  142.1471  169.4177 C.ar    1  UNL1       -0.0000
     24 C         143.4164  142.4690  167.9527 C.ar    1  UNL1       -0.0004
     25 C         142.9403  141.4450  166.9655 C.ar    1  UNL1        0.0004
     26 F         141.5291  138.0512  165.4685 F       1  UNL1       -0.1659
     27 C         142.0052  139.0752  166.4558 C.3     1  UNL1        0.4186
     28 F         143.3271  138.3722  166.5474 F       1  UNL1       -0.1659
     29 F         140.6834  139.7782  166.3642 F       1  UNL1       -0.1659
     30 C         141.5913  144.6059  163.0682 C.3     1  UNL1        0.4221
     31 F         140.9340  145.8645  162.5845 F       1  UNL1       -0.1657
     32 F         140.4311  143.8039  162.5577 F       1  UNL1       -0.1657
     33 F         142.7515  145.4080  163.5787 F       1  UNL1       -0.1657
@<TRIPOS>BOND
     1    26    27    1
     2    27    28    1
     3    27    29    1
     4    27    20    1
     5    20    21   ar
     6    21    22   ar
     7    22    23   ar
     8    23    24   ar
     9    24    25   ar
    10    25     1    1
    11     1     2    2
    12     2     3    1
    13     3    30    1
    14    30    31    1
    15    30    32    1
    16    30    33    1
    17     3     4    2
    18     4     5    1
    19     5     6    2
    20     6    10    1
    21    10    11    2
    22    11    12    1
    23    12    13    1
    24    13    14    1
    25    14    15    1
    26    15    16    1
    27    16    17    1
    28    17    18    1
    29    13    19    1
    30     6     7    1
    31     7     8    2
    32     8     9    1
    33    25    20   ar
    34     9     1    1
    35     8     4    1
    36    19    10    1
    37    18    13    1
@<TRIPOS>MOLECULE
*****
 33 37 0 0 0
SMALL
GASTEIGER

@<TRIPOS>ATOM
      1 C         140.7154  142.1043  165.2755 C.2     1  UNL1       -0.0138
      2 C         140.0879  143.3319  164.6845 C.2     1  UNL1        0.0039
      3 C         140.4545  143.7677  163.2968 C.2     1  UNL1        0.1174
      4 C         141.4486  142.9759  162.5000 C.2     1  UNL1        0.2360
      5 N         142.0018  143.1597  161.1180 N.2     1  UNL1       -0.0297
      6 C         142.9712  142.0457  160.8548 C.2     1  UNL1        0.3923
      7 N         143.0171  141.1734  162.0742 N.2     1  UNL1       -0.0336
      8 C         142.0761  141.7483  163.0910 C.2     1  UNL1        0.2178
      9 C         141.7095  141.3125  164.4787 C.3     1  UNL1        0.1040
     10 C         143.7567  141.8401  159.5936 C.2     1  UNL1        0.1883
     11 N         144.9165  142.6719  159.1318 N.2     1  UNL1       -0.0797
     12 O         145.3970  142.1125  157.8255 O.2     1  UNL1       -0.3845
     13 C         144.5343  140.9350  157.4800 C.3     1  UNL1        0.1669
     14 C         143.5941  139.7856  157.2683 C.3     1  UNL1        0.0431
     15 C         143.7226  138.9272  156.0450 C.3     1  UNL1        0.0037
     16 C         144.7912  139.2183  155.0333 C.3     1  UNL1        0.0002
     17 C         145.7313  140.3677  155.2450 C.3     1  UNL1        0.0037
     18 C         145.6028  141.2261  156.4684 C.3     1  UNL1        0.0431
     19 C         143.5205  140.7667  158.5728 C.3     1  UNL1        0.0999
     20 C         139.5770  140.3994  166.8714 C.ar    1  UNL1        0.0711
     21 C         139.2104  139.9636  168.2592 C.ar    1  UNL1        0.0038
     22 C         139.6156  140.7970  169.4385 C.ar    1  UNL1       -0.0001
     23 C         140.3875  142.0662  169.2303 C.ar    1  UNL1       -0.0000
     24 C         140.7541  142.5020  167.8426 C.ar    1  UNL1       -0.0004
     25 C         140.3488  141.6686  166.6632 C.ar    1  UNL1        0.0004
     26 F         138.7664  138.7325  164.5125 F       1  UNL1       -0.1659
     27 C         139.1717  139.5659  165.6919 C.3     1  UNL1        0.4186
     28 F         140.3825  138.7022  165.8862 F       1  UNL1       -0.1659
     29 F         137.9608  140.4296  165.4977 F       1  UNL1       -0.1659
     30 C         139.8271  144.9953  162.7059 C.3     1  UNL1        0.4221
     31 F         139.1996  146.2229  162.1149 F       1  UNL1       -0.1657
     32 F         141.1239  145.7329  162.8611 F       1  UNL1       -0.1657
     33 F         138.5302  144.2577  162.5506 F       1  UNL1       -0.1657
@<TRIPOS>BOND
     1    26    27    1
     2    27    28    1
     3    27    29    1
     4    27    20    1
     5    20    21   ar
     6    21    22   ar
     7    22    23   ar
     8    23    24   ar
     9    24    25   ar
    10    25     1    1
    11     1     2    2
    12     2     3    1
    13     3    30    1
    14    30    31    1
    15    30    32    1
    16    30    33    1
    17     3     4    2
    18     4     5    1
    19     5     6    2
    20     6    10    1
    21    10    11    2
    22    11    12    1
    23    12    13    1
    24    13    14    1
    25    14    15    1
    26    15    16    1
    27    16    17    1
    28    17    18    1
    29    13    19    1
    30     6     7    1
    31     7     8    2
    32     8     9    1
    33    25    20   ar
    34     9     1    1
    35     8     4    1
    36    19    10    1
    37    18    13    1
@<TRIPOS>MOLECULE
*****
 33 37 0 0 0
SMALL
GASTEIGER

@<TRIPOS>ATOM
      1 C         142.2553  140.6301  165.3384 C.2     1  UNL1       -0.0138
      2 C         142.7981  141.9827  164.9838 C.2     1  UNL1        0.0039
      3 C         143.2182  142.2763  163.5741 C.2     1  UNL1        0.1174
      4 C         143.0956  141.2172  162.5190 C.2     1  UNL1        0.2360
      5 N         143.4266  141.2148  161.0559 N.2     1  UNL1       -0.0297
      6 C         143.0884  139.8608  160.5064 C.2     1  UNL1        0.3923
      7 N         142.5483  139.0263  161.6297 N.2     1  UNL1       -0.0336
      8 C         142.5527  139.8646  162.8736 C.2     1  UNL1        0.2178
      9 C         142.1326  139.5711  164.2833 C.3     1  UNL1        0.1040
     10 C         143.2601  139.4188  159.0834 C.2     1  UNL1        0.1883
     11 N         144.3053  139.9117  158.1270 N.2     1  UNL1       -0.0797
     12 O         144.1080  139.2038  156.8193 O.2     1  UNL1       -0.3845
     13 C         142.9407  138.2733  156.9675 C.3     1  UNL1        0.1669
     14 C         141.7621  137.3941  157.2636 C.3     1  UNL1        0.0431
     15 C         141.2150  136.4897  156.1994 C.3     1  UNL1        0.0037
     16 C         141.8466  136.4643  154.8391 C.3     1  UNL1        0.0002
     17 C         143.0253  137.3435  154.5430 C.3     1  UNL1        0.0037
     18 C         143.5724  138.2480  155.6072 C.3     1  UNL1        0.0431
     19 C         142.4168  138.4061  158.3667 C.3     1  UNL1        0.0999
     20 C         140.4372  140.6476  167.1943 C.ar    1  UNL1        0.0711
     21 C         140.0171  140.3540  168.6041 C.ar    1  UNL1        0.0038
     22 C         140.9949  139.7496  169.5676 C.ar    1  UNL1       -0.0001
     23 C         142.3928  139.4386  169.1214 C.ar    1  UNL1       -0.0000
     24 C         142.8129  139.7321  167.7117 C.ar    1  UNL1       -0.0004
     25 C         141.8351  140.3366  166.7482 C.ar    1  UNL1        0.0004
     26 F         138.4815  141.8566  165.2672 F       1  UNL1       -0.1659
     27 C         139.4593  141.2521  166.2307 C.3     1  UNL1        0.4186
     28 F         139.0015  139.8798  165.8345 F       1  UNL1       -0.1659
     29 F         139.9173  142.6244  166.6270 F       1  UNL1       -0.1659
     30 C         143.7611  143.6289  163.2195 C.3     1  UNL1        0.4221
     31 F         144.3039  144.9815  162.8649 F       1  UNL1       -0.1657
     32 F         142.4175  144.2388  163.4892 F       1  UNL1       -0.1657
     33 F         145.1046  143.0190  162.9497 F       1  UNL1       -0.1657
@<TRIPOS>BOND
     1    26    27    1
     2    27    28    1
     3    27    29    1
     4    27    20    1
     5    20    21   ar
     6    21    22   ar
     7    22    23   ar
     8    23    24   ar
     9    24    25   ar
    10    25     1    1
    11     1     2    2
    12     2     3    1
    13     3    30    1
    14    30    31    1
    15    30    32    1
    16    30    33    1
    17     3     4    2
    18     4     5    1
    19     5     6    2
    20     6    10    1
    21    10    11    2
    22    11    12    1
    23    12    13    1
    24    13    14    1
    25    14    15    1
    26    15    16    1
    27    16    17    1
    28    17    18    1
    29    13    19    1
    30     6     7    1
    31     7     8    2
    32     8     9    1
    33    25    20   ar
    34     9     1    1
    35     8     4    1
    36    19    10    1
    37    18    13    1
@<TRIPOS>MOLECULE
*****
 33 37 0 0 0
SMALL
GASTEIGER

@<TRIPOS>ATOM
      1 C         140.4291  140.4551  165.5279 C.2     1  UNL1       -0.0138
      2 C         139.6609  139.4434  164.7301 C.2     1  UNL1        0.0039
      3 C         139.3117  139.7251  163.2988 C.2     1  UNL1        0.1174
      4 C         139.7305  141.0186  162.6652 C.2     1  UNL1        0.2360
      5 N         139.5314  141.5710  161.2849 N.2     1  UNL1       -0.0297
      6 C         140.1764  142.9240  161.2296 C.2     1  UNL1        0.3923
      7 N         140.7742  143.2080  162.5757 N.2     1  UNL1       -0.0336
      8 C         140.4986  142.0304  163.4630 C.2     1  UNL1        0.2178
      9 C         140.8479  141.7486  164.8943 C.3     1  UNL1        0.1040
     10 C         140.2166  143.8335  160.0375 C.2     1  UNL1        0.1883
     11 N         140.7673  145.2286  160.0109 N.2     1  UNL1       -0.0797
     12 O         140.6042  145.7649  158.6196 O.2     1  UNL1       -0.3845
     13 C         139.9527  144.7013  157.7862 C.3     1  UNL1        0.1669
     14 C         139.3006  143.5486  157.0821 C.3     1  UNL1        0.0431
     15 C         138.9502  143.6592  155.6278 C.3     1  UNL1        0.0037
     16 C         139.2518  144.9227  154.8777 C.3     1  UNL1        0.0002
     17 C         139.9039  146.0754  155.5818 C.3     1  UNL1        0.0037
     18 C         140.2544  145.9648  157.0361 C.3     1  UNL1        0.0431
     19 C         139.7131  143.5077  158.6625 C.3     1  UNL1        0.0999
     20 C         142.1459  139.6681  167.3120 C.ar    1  UNL1        0.0711
     21 C         142.4952  139.3863  168.7433 C.ar    1  UNL1        0.0038
     22 C         141.4769  139.6098  169.8217 C.ar    1  UNL1       -0.0001
     23 C         140.1093  140.1150  169.4689 C.ar    1  UNL1       -0.0000
     24 C         139.7600  140.3968  168.0376 C.ar    1  UNL1       -0.0004
     25 C         140.7783  140.1733  166.9592 C.ar    1  UNL1        0.0004
     26 F         144.1826  139.2212  165.1550 F       1  UNL1       -0.1659
     27 C         143.1643  139.4446  166.2335 C.3     1  UNL1        0.4186
     28 F         142.7349  138.0116  166.1250 F       1  UNL1       -0.1659
     29 F         143.5936  140.8777  166.3420 F       1  UNL1       -0.1659
     30 C         138.5436  138.7134  162.5011 C.3     1  UNL1        0.4221
     31 F         137.7754  137.7017  161.7034 F       1  UNL1       -0.1657
     32 F         137.3831  139.6602  162.4177 F       1  UNL1       -0.1657
     33 F         139.7040  137.7666  162.5845 F       1  UNL1       -0.1657
@<TRIPOS>BOND
     1    26    27    1
     2    27    28    1
     3    27    29    1
     4    27    20    1
     5    20    21   ar
     6    21    22   ar
     7    22    23   ar
     8    23    24   ar
     9    24    25   ar
    10    25     1    1
    11     1     2    2
    12     2     3    1
    13     3    30    1
    14    30    31    1
    15    30    32    1
    16    30    33    1
    17     3     4    2
    18     4     5    1
    19     5     6    2
    20     6    10    1
    21    10    11    2
    22    11    12    1
    23    12    13    1
    24    13    14    1
    25    14    15    1
    26    15    16    1
    27    16    17    1
    28    17    18    1
    29    13    19    1
    30     6     7    1
    31     7     8    2
    32     8     9    1
    33    25    20   ar
    34     9     1    1
    35     8     4    1
    36    19    10    1
    37    18    13    1
