@<TRIPOS>MOLECULE
*****
 34 38 0 0 0
SMALL
GASTEIGER

@<TRIPOS>ATOM
      1 C         141.6241  138.6108  161.8083 C.ar    1  UNL1        0.0541
      2 C         142.8566  137.7865  161.5815 C.ar    1  UNL1        0.0180
      3 C         143.3045  137.4759  160.1839 C.ar    1  UNL1        0.0382
      4 C         142.5199  137.9897  159.0133 C.ar    1  UNL1        0.1385
      5 C         141.2874  138.8140  159.2401 C.ar    1  UNL1        0.0382
      6 C         140.8395  139.1246  160.6375 C.ar    1  UNL1        0.0180
      7 O         138.5600  139.2606  167.9270 O.2     1  UNL1       -0.2699
      8 C         139.8324  139.8531  167.3981 C.2     1  UNL1        0.2494
      9 N         140.2804  139.5426  166.0006 N.am    1  UNL1       -0.2660
     10 C         141.5528  140.1351  165.4718 C.3     1  UNL1        0.1160
     11 C         142.0007  139.8245  164.0742 C.3     1  UNL1        0.1197
     12 N         141.1762  138.9214  163.2057 N.am    1  UNL1       -0.2555
     13 C         139.9037  138.3288  163.7346 C.2     1  UNL1        0.2497
     14 O         139.0792  137.4257  162.8660 O.2     1  UNL1       -0.2727
     15 C         139.4558  138.6394  165.1320 C.3     1  UNL1        0.1799
     16 C         140.6570  140.7563  168.2667 C.ar    1  UNL1        0.0536
     17 C         140.3609  142.2260  168.3149 C.ar    1  UNL1        0.0054
     18 C         141.1854  143.1291  169.1835 C.ar    1  UNL1        0.0115
     19 C         142.3061  142.5625  170.0039 C.ar    1  UNL1        0.0577
     20 CL        143.1307  143.4657  170.8726 Cl      1  UNL1       -0.0822
     21 C         142.6022  141.0928  169.9557 C.ar    1  UNL1        0.0115
     22 C         141.7777  140.1897  169.0871 C.ar    1  UNL1        0.0054
     23 O         142.9678  137.6791  157.6159 O.3     1  UNL1       -0.4791
     24 C         142.6575  136.3433  157.0082 C.3     1  UNL1        0.1687
     25 C         141.6212  136.2326  155.9294 C.3     1  UNL1        0.0609
     26 C         141.3109  134.8967  155.3218 C.3     1  UNL1        0.0758
     27 N         142.0368  133.6716  155.7929 N.3     1  UNL1       -0.2737
     28 C         143.0731  133.7823  156.8718 C.3     1  UNL1        0.0758
     29 C         143.3835  135.1181  157.4794 C.3     1  UNL1        0.0609
     30 C         141.7265  132.3357  155.1853 C.3     1  UNL1        0.0575
     31 C         142.1833  131.0041  155.7031 C.3     1  UNL1        0.0160
     32 C         141.6440  129.9423  154.7909 C.3     1  UNL1        0.0014
     33 C         140.8538  130.6178  153.7095 C.3     1  UNL1        0.0014
     34 C         140.9048  132.0970  153.9533 C.3     1  UNL1        0.0160
@<TRIPOS>BOND
     1     7     8    2
     2     8    16    1
     3    16    17   ar
     4    17    18   ar
     5    18    19   ar
     6    19    20    1
     7    19    21   ar
     8    21    22   ar
     9     8     9   am
    10     9    10    1
    11    10    11    1
    12    11    12    1
    13    12     1    1
    14     1     2   ar
    15     2     3   ar
    16     3     4   ar
    17     4    23    1
    18    23    24    1
    19    24    25    1
    20    25    26    1
    21    26    27    1
    22    27    30    1
    23    30    31    1
    24    31    32    1
    25    32    33    1
    26    33    34    1
    27    27    28    1
    28    28    29    1
    29     4     5   ar
    30     5     6   ar
    31    12    13   am
    32    13    14    2
    33    13    15    1
    34    22    16   ar
    35    15     9    1
    36     6     1   ar
    37    29    24    1
    38    34    30    1
@<TRIPOS>MOLECULE
*****
 34 38 0 0 0
SMALL
GASTEIGER

@<TRIPOS>ATOM
      1 C         139.6113  141.6058  161.5981 C.ar    1  UNL1        0.0541
      2 C         138.4752  142.4055  161.0325 C.ar    1  UNL1        0.0180
      3 C         138.4128  142.6819  159.5595 C.ar    1  UNL1        0.0382
      4 C         139.4865  142.1587  158.6521 C.ar    1  UNL1        0.1385
      5 C         140.6226  141.3590  159.2176 C.ar    1  UNL1        0.0382
      6 C         140.6850  141.0826  160.6906 C.ar    1  UNL1        0.0180
      7 O         139.0060  139.4222  168.0877 O.2     1  UNL1       -0.2699
      8 C         139.8610  140.5000  167.4899 C.2     1  UNL1        0.2494
      9 N         139.7986  140.7764  166.0170 N.am    1  UNL1       -0.2660
     10 C         140.6536  141.8543  165.4193 C.3     1  UNL1        0.1160
     11 C         140.5911  142.1307  163.9462 C.3     1  UNL1        0.1197
     12 N         139.6737  141.3293  163.0710 N.am    1  UNL1       -0.2555
     13 C         138.8187  140.2515  163.6687 C.2     1  UNL1        0.2497
     14 O         137.9013  139.4501  162.7935 O.2     1  UNL1       -0.2727
     15 C         138.8811  139.9751  165.1417 C.3     1  UNL1        0.1799
     16 C         140.7785  141.3014  168.3653 C.ar    1  UNL1        0.0536
     17 C         142.1829  140.8333  168.6070 C.ar    1  UNL1        0.0054
     18 C         143.1003  141.6347  169.4823 C.ar    1  UNL1        0.0115
     19 C         142.6132  142.9041  170.1158 C.ar    1  UNL1        0.0577
     20 CL        143.5307  143.7055  170.9911 Cl      1  UNL1       -0.0822
     21 C         141.2088  143.3722  169.8740 C.ar    1  UNL1        0.0115
     22 C         140.2914  142.5708  168.9988 C.ar    1  UNL1        0.0054
     23 O         139.4241  142.4351  157.1791 O.3     1  UNL1       -0.4791
     24 C         139.3915  143.8501  156.6823 C.3     1  UNL1        0.1687
     25 C         140.3959  144.8446  157.1843 C.3     1  UNL1        0.0609
     26 C         140.3633  146.2595  156.6875 C.3     1  UNL1        0.0758
     27 N         139.3263  146.6800  155.6886 N.3     1  UNL1       -0.2737
     28 C         138.3218  145.6855  155.1865 C.3     1  UNL1        0.0758
     29 C         138.3544  144.2706  155.6834 C.3     1  UNL1        0.0609
     30 C         139.2937  148.0950  155.1918 C.3     1  UNL1        0.0575
     31 C         139.8912  148.5931  153.9092 C.3     1  UNL1        0.0160
     32 C         139.6247  150.0662  153.8151 C.3     1  UNL1        0.0014
     33 C         138.8625  150.4786  155.0395 C.3     1  UNL1        0.0014
     34 C         138.6580  149.2603  155.8903 C.3     1  UNL1        0.0160
@<TRIPOS>BOND
     1     7     8    2
     2     8    16    1
     3    16    17   ar
     4    17    18   ar
     5    18    19   ar
     6    19    20    1
     7    19    21   ar
     8    21    22   ar
     9     8     9   am
    10     9    10    1
    11    10    11    1
    12    11    12    1
    13    12     1    1
    14     1     2   ar
    15     2     3   ar
    16     3     4   ar
    17     4    23    1
    18    23    24    1
    19    24    25    1
    20    25    26    1
    21    26    27    1
    22    27    30    1
    23    30    31    1
    24    31    32    1
    25    32    33    1
    26    33    34    1
    27    27    28    1
    28    28    29    1
    29     4     5   ar
    30     5     6   ar
    31    12    13   am
    32    13    14    2
    33    13    15    1
    34    22    16   ar
    35    15     9    1
    36     6     1   ar
    37    29    24    1
    38    34    30    1
@<TRIPOS>MOLECULE
*****
 34 38 0 0 0
SMALL
GASTEIGER

@<TRIPOS>ATOM
      1 C         141.1603  138.9312  162.0832 C.ar    1  UNL1        0.0541
      2 C         142.2808  138.0016  161.7220 C.ar    1  UNL1        0.0180
      3 C         142.5880  137.7217  160.2807 C.ar    1  UNL1        0.0382
      4 C         141.7748  138.3713  159.2006 C.ar    1  UNL1        0.1385
      5 C         140.6543  139.3008  159.5618 C.ar    1  UNL1        0.0382
      6 C         140.3471  139.5808  161.0030 C.ar    1  UNL1        0.0180
      7 O         138.7421  139.4100  168.4997 O.2     1  UNL1       -0.2699
      8 C         139.9313  140.0511  167.8481 C.2     1  UNL1        0.2494
      9 N         140.2386  139.7712  166.4069 N.am    1  UNL1       -0.2660
     10 C         141.4278  140.4124  165.7553 C.3     1  UNL1        0.1160
     11 C         141.7350  140.1323  164.3140 C.3     1  UNL1        0.1197
     12 N         140.8530  139.2112  163.5244 N.am    1  UNL1       -0.2555
     13 C         139.6638  138.5700  164.1760 C.2     1  UNL1        0.2497
     14 O         138.7818  137.6488  163.3864 O.2     1  UNL1       -0.2727
     15 C         139.3566  138.8500  165.6172 C.3     1  UNL1        0.1799
     16 C         140.8133  140.9724  168.6378 C.ar    1  UNL1        0.0536
     17 C         140.3842  142.3871  168.8913 C.ar    1  UNL1        0.0054
     18 C         141.2662  143.3082  169.6810 C.ar    1  UNL1        0.0115
     19 C         142.5773  142.8146  170.2171 C.ar    1  UNL1        0.0577
     20 CL        143.4593  143.7358  171.0068 Cl      1  UNL1       -0.0822
     21 C         143.0063  141.3998  169.9636 C.ar    1  UNL1        0.0115
     22 C         142.1244  140.4787  169.1740 C.ar    1  UNL1        0.0054
     23 O         142.0820  138.0913  157.7594 O.3     1  UNL1       -0.4791
     24 C         143.1769  138.8463  157.0656 C.3     1  UNL1        0.1687
     25 C         143.7389  140.0911  157.6855 C.3     1  UNL1        0.0609
     26 C         144.8337  140.8461  156.9917 C.3     1  UNL1        0.0758
     27 N         145.3665  140.3562  155.6779 N.3     1  UNL1       -0.2737
     28 C         144.8044  139.1113  155.0579 C.3     1  UNL1        0.0758
     29 C         143.7096  138.3563  155.7517 C.3     1  UNL1        0.0609
     30 C         146.4613  141.1112  154.9840 C.3     1  UNL1        0.0575
     31 C         146.5748  141.3399  153.5059 C.3     1  UNL1        0.0160
     32 C         147.8185  142.1400  153.2548 C.3     1  UNL1        0.0014
     33 C         148.4736  142.4059  154.5778 C.3     1  UNL1        0.0014
     34 C         147.6348  141.7700  155.6465 C.3     1  UNL1        0.0160
@<TRIPOS>BOND
     1     7     8    2
     2     8    16    1
     3    16    17   ar
     4    17    18   ar
     5    18    19   ar
     6    19    20    1
     7    19    21   ar
     8    21    22   ar
     9     8     9   am
    10     9    10    1
    11    10    11    1
    12    11    12    1
    13    12     1    1
    14     1     2   ar
    15     2     3   ar
    16     3     4   ar
    17     4    23    1
    18    23    24    1
    19    24    25    1
    20    25    26    1
    21    26    27    1
    22    27    30    1
    23    30    31    1
    24    31    32    1
    25    32    33    1
    26    33    34    1
    27    27    28    1
    28    28    29    1
    29     4     5   ar
    30     5     6   ar
    31    12    13   am
    32    13    14    2
    33    13    15    1
    34    22    16   ar
    35    15     9    1
    36     6     1   ar
    37    29    24    1
    38    34    30    1
@<TRIPOS>MOLECULE
*****
 34 38 0 0 0
SMALL
GASTEIGER

@<TRIPOS>ATOM
      1 C         140.5535  138.3030  158.3850 C.ar    1  UNL1        0.0541
      2 C         139.7002  137.6690  157.3268 C.ar    1  UNL1        0.0180
      3 C         140.3412  137.0134  156.1396 C.ar    1  UNL1        0.0382
      4 C         141.8354  136.9918  156.0106 C.ar    1  UNL1        0.1385
      5 C         142.6888  137.6259  157.0688 C.ar    1  UNL1        0.0382
      6 C         142.0479  138.2815  158.2560 C.ar    1  UNL1        0.0180
      7 O         136.7926  141.8094  162.9468 O.2     1  UNL1       -0.2699
      8 C         137.9899  140.9254  163.1337 C.2     1  UNL1        0.2494
      9 N         138.6308  140.2698  161.9466 N.am    1  UNL1       -0.2660
     10 C         139.8281  139.3857  162.1335 C.3     1  UNL1        0.1160
     11 C         140.4690  138.7301  160.9462 C.3     1  UNL1        0.1197
     12 N         139.9126  138.9586  159.5721 N.am    1  UNL1       -0.2555
     13 C         138.7153  139.8426  159.3852 C.2     1  UNL1        0.2497
     14 O         138.1589  140.0711  158.0111 O.2     1  UNL1       -0.2727
     15 C         138.0744  140.4982  160.5724 C.3     1  UNL1        0.1799
     16 C         138.5463  140.6969  164.5079 C.ar    1  UNL1        0.0536
     17 C         139.5184  141.6763  165.0958 C.ar    1  UNL1        0.0054
     18 C         140.0747  141.4478  166.4699 C.ar    1  UNL1        0.0115
     19 C         139.6589  140.2400  167.2561 C.ar    1  UNL1        0.0577
     20 CL        140.2153  140.0115  168.6303 Cl      1  UNL1       -0.0822
     21 C         138.6868  139.2606  166.6682 C.ar    1  UNL1        0.0115
     22 C         138.1305  139.4890  165.2941 C.ar    1  UNL1        0.0054
     23 O         142.4763  136.3363  154.8234 O.3     1  UNL1       -0.4791
     24 C         142.9029  134.9002  154.8991 C.3     1  UNL1        0.1687
     25 C         142.4422  133.9250  153.8567 C.3     1  UNL1        0.0609
     26 C         142.8687  132.4889  153.9324 C.3     1  UNL1        0.0758
     27 N         143.7560  132.0280  155.0505 N.3     1  UNL1       -0.2737
     28 C         144.2168  133.0032  156.0930 C.3     1  UNL1        0.0758
     29 C         143.7903  134.4393  156.0173 C.3     1  UNL1        0.0609
     30 C         144.1826  130.5920  155.1262 C.3     1  UNL1        0.0575
     31 C         144.5399  129.7158  153.9622 C.3     1  UNL1        0.0160
     32 C         144.9049  128.3622  154.4958 C.3     1  UNL1        0.0014
     33 C         144.7732  128.4018  155.9895 C.3     1  UNL1        0.0014
     34 C         144.3268  129.7799  156.3791 C.3     1  UNL1        0.0160
@<TRIPOS>BOND
     1     7     8    2
     2     8    16    1
     3    16    17   ar
     4    17    18   ar
     5    18    19   ar
     6    19    20    1
     7    19    21   ar
     8    21    22   ar
     9     8     9   am
    10     9    10    1
    11    10    11    1
    12    11    12    1
    13    12     1    1
    14     1     2   ar
    15     2     3   ar
    16     3     4   ar
    17     4    23    1
    18    23    24    1
    19    24    25    1
    20    25    26    1
    21    26    27    1
    22    27    30    1
    23    30    31    1
    24    31    32    1
    25    32    33    1
    26    33    34    1
    27    27    28    1
    28    28    29    1
    29     4     5   ar
    30     5     6   ar
    31    12    13   am
    32    13    14    2
    33    13    15    1
    34    22    16   ar
    35    15     9    1
    36     6     1   ar
    37    29    24    1
    38    34    30    1
@<TRIPOS>MOLECULE
*****
 34 38 0 0 0
SMALL
GASTEIGER

@<TRIPOS>ATOM
      1 C         140.8219  139.8803  160.4123 C.ar    1  UNL1        0.0541
      2 C         139.7210  139.0022  159.8955 C.ar    1  UNL1        0.0180
      3 C         139.8512  138.3488  158.5515 C.ar    1  UNL1        0.0382
      4 C         141.0823  138.5734  157.7245 C.ar    1  UNL1        0.1385
      5 C         142.1831  139.4514  158.2413 C.ar    1  UNL1        0.0382
      6 C         142.0530  140.1049  159.5852 C.ar    1  UNL1        0.0180
      7 O         139.5319  143.7741  165.9281 O.2     1  UNL1       -0.2699
      8 C         140.3012  142.4941  165.7879 C.2     1  UNL1        0.2494
      9 N         140.4314  141.8406  164.4440 N.am    1  UNL1       -0.2660
     10 C         141.2008  140.5606  164.3038 C.3     1  UNL1        0.1160
     11 C         141.3309  139.9072  162.9598 C.3     1  UNL1        0.1197
     12 N         140.6917  140.5337  161.7562 N.am    1  UNL1       -0.2555
     13 C         139.9223  141.8137  161.8964 C.2     1  UNL1        0.2497
     14 O         139.2831  142.4403  160.6928 O.2     1  UNL1       -0.2727
     15 C         139.7922  142.4672  163.2403 C.3     1  UNL1        0.1799
     16 C         140.9405  141.8675  166.9916 C.ar    1  UNL1        0.0536
     17 C         140.1940  140.8375  167.7865 C.ar    1  UNL1        0.0054
     18 C         140.8332  140.2110  168.9901 C.ar    1  UNL1        0.0115
     19 C         142.2189  140.6145  169.3989 C.ar    1  UNL1        0.0577
     20 CL        142.8581  139.9879  170.6026 Cl      1  UNL1       -0.0822
     21 C         142.9653  141.6445  168.6040 C.ar    1  UNL1        0.0115
     22 C         142.3261  142.2710  167.4004 C.ar    1  UNL1        0.0054
     23 O         141.2124  137.9200  156.3806 O.3     1  UNL1       -0.4791
     24 C         141.7174  136.5113  156.2773 C.3     1  UNL1        0.1687
     25 C         142.9138  136.0831  157.0743 C.3     1  UNL1        0.0609
     26 C         143.4188  134.6745  156.9710 C.3     1  UNL1        0.0758
     27 N         142.7274  133.6940  156.0708 N.3     1  UNL1       -0.2737
     28 C         141.5309  134.1221  155.2738 C.3     1  UNL1        0.0758
     29 C         141.0259  135.5308  155.3770 C.3     1  UNL1        0.0609
     30 C         143.2324  132.2853  155.9675 C.3     1  UNL1        0.0575
     31 C         144.6708  131.8604  155.9908 C.3     1  UNL1        0.0160
     32 C         144.7150  130.3667  155.8605 C.3     1  UNL1        0.0014
     33 C         143.3040  129.8685  155.7566 C.3     1  UNL1        0.0014
     34 C         142.3877  131.0543  155.8227 C.3     1  UNL1        0.0160
@<TRIPOS>BOND
     1     7     8    2
     2     8    16    1
     3    16    17   ar
     4    17    18   ar
     5    18    19   ar
     6    19    20    1
     7    19    21   ar
     8    21    22   ar
     9     8     9   am
    10     9    10    1
    11    10    11    1
    12    11    12    1
    13    12     1    1
    14     1     2   ar
    15     2     3   ar
    16     3     4   ar
    17     4    23    1
    18    23    24    1
    19    24    25    1
    20    25    26    1
    21    26    27    1
    22    27    30    1
    23    30    31    1
    24    31    32    1
    25    32    33    1
    26    33    34    1
    27    27    28    1
    28    28    29    1
    29     4     5   ar
    30     5     6   ar
    31    12    13   am
    32    13    14    2
    33    13    15    1
    34    22    16   ar
    35    15     9    1
    36     6     1   ar
    37    29    24    1
    38    34    30    1
@<TRIPOS>MOLECULE
*****
 34 38 0 0 0
SMALL
GASTEIGER

@<TRIPOS>ATOM
      1 C         142.2769  143.7741  159.8833 C.ar    1  UNL1        0.0541
      2 C         142.0121  144.1824  161.3022 C.ar    1  UNL1        0.0180
      3 C         142.8327  143.6015  162.4154 C.ar    1  UNL1        0.0382
      4 C         143.9181  142.6124  162.1098 C.ar    1  UNL1        0.1385
      5 C         144.1830  142.2041  160.6909 C.ar    1  UNL1        0.0382
      6 C         143.3625  142.7849  159.5777 C.ar    1  UNL1        0.0180
      7 O         137.7966  145.3558  154.9160 O.2     1  UNL1       -0.2699
      8 C         138.9947  146.0974  155.4304 C.2     1  UNL1        0.2494
      9 N         139.8153  145.5166  156.5436 N.am    1  UNL1       -0.2660
     10 C         141.0134  146.2582  157.0580 C.3     1  UNL1        0.1160
     11 C         141.8339  145.6773  158.1713 C.3     1  UNL1        0.1197
     12 N         141.4564  144.3549  158.7701 N.am    1  UNL1       -0.2555
     13 C         140.2583  143.6133  158.2557 C.2     1  UNL1        0.2497
     14 O         139.8807  142.2909  158.8546 O.2     1  UNL1       -0.2727
     15 C         139.4377  144.1941  157.1425 C.3     1  UNL1        0.1799
     16 C         139.3722  147.4199  154.8315 C.ar    1  UNL1        0.0536
     17 C         138.8248  148.6899  155.4123 C.ar    1  UNL1        0.0054
     18 C         139.2023  150.0123  154.8134 C.ar    1  UNL1        0.0115
     19 C         140.1273  150.0646  153.6337 C.ar    1  UNL1        0.0577
     20 CL        140.5048  151.3871  153.0348 Cl      1  UNL1       -0.0822
     21 C         140.6748  148.7946  153.0529 C.ar    1  UNL1        0.0115
     22 C         140.2972  147.4723  153.6518 C.ar    1  UNL1        0.0054
     23 O         144.7387  142.0316  163.2230 O.3     1  UNL1       -0.4791
     24 C         144.0982  141.7199  164.5430 C.3     1  UNL1        0.1687
     25 C         143.5355  140.3533  164.7996 C.3     1  UNL1        0.0609
     26 C         142.8950  140.0416  166.1196 C.3     1  UNL1        0.0758
     27 N         142.8172  141.0964  167.1832 N.3     1  UNL1       -0.2737
     28 C         143.3799  142.4631  166.9267 C.3     1  UNL1        0.0758
     29 C         144.0204  142.7748  165.6066 C.3     1  UNL1        0.0609
     30 C         142.1767  140.7847  168.5032 C.3     1  UNL1        0.0575
     31 C         142.7181  141.1492  169.8539 C.3     1  UNL1        0.0160
     32 C         141.7583  140.6435  170.8898 C.3     1  UNL1        0.0014
     33 C         140.6238  139.9664  170.1795 C.3     1  UNL1        0.0014
     34 C         140.8824  140.0537  168.7045 C.3     1  UNL1        0.0160
@<TRIPOS>BOND
     1     7     8    2
     2     8    16    1
     3    16    17   ar
     4    17    18   ar
     5    18    19   ar
     6    19    20    1
     7    19    21   ar
     8    21    22   ar
     9     8     9   am
    10     9    10    1
    11    10    11    1
    12    11    12    1
    13    12     1    1
    14     1     2   ar
    15     2     3   ar
    16     3     4   ar
    17     4    23    1
    18    23    24    1
    19    24    25    1
    20    25    26    1
    21    26    27    1
    22    27    30    1
    23    30    31    1
    24    31    32    1
    25    32    33    1
    26    33    34    1
    27    27    28    1
    28    28    29    1
    29     4     5   ar
    30     5     6   ar
    31    12    13   am
    32    13    14    2
    33    13    15    1
    34    22    16   ar
    35    15     9    1
    36     6     1   ar
    37    29    24    1
    38    34    30    1
@<TRIPOS>MOLECULE
*****
 34 38 0 0 0
SMALL
GASTEIGER

@<TRIPOS>ATOM
      1 C         142.2643  138.5663  159.7916 C.ar    1  UNL1        0.0541
      2 C         141.7239  137.9054  161.0250 C.ar    1  UNL1        0.0180
      3 C         142.4522  138.0415  162.3292 C.ar    1  UNL1        0.0382
      4 C         143.7209  138.8385  162.4001 C.ar    1  UNL1        0.1385
      5 C         144.2614  139.4995  161.1668 C.ar    1  UNL1        0.0382
      6 C         143.5331  139.3634  159.8626 C.ar    1  UNL1        0.0180
      7 O         139.8259  137.0348  153.5500 O.2     1  UNL1       -0.2699
      8 C         139.3511  138.0220  154.5747 C.2     1  UNL1        0.2494
      9 N         140.0794  138.1581  155.8789 N.am    1  UNL1       -0.2660
     10 C         139.6046  139.1453  156.9036 C.3     1  UNL1        0.1160
     11 C         140.3330  139.2814  158.2079 C.3     1  UNL1        0.1197
     12 N         141.5360  138.4302  158.4874 N.am    1  UNL1       -0.2555
     13 C         142.0108  137.4430  157.4627 C.2     1  UNL1        0.2497
     14 O         143.2139  136.5919  157.7423 O.2     1  UNL1       -0.2727
     15 C         141.2825  137.3069  156.1585 C.3     1  UNL1        0.1799
     16 C         138.1480  138.8732  154.2951 C.ar    1  UNL1        0.0536
     17 C         138.3221  140.2793  153.8026 C.ar    1  UNL1        0.0054
     18 C         137.1190  141.1303  153.5230 C.ar    1  UNL1        0.0115
     19 C         135.7418  140.5753  153.7360 C.ar    1  UNL1        0.0577
     20 CL        134.5387  141.4265  153.4564 Cl      1  UNL1       -0.0822
     21 C         135.5677  139.1693  154.2285 C.ar    1  UNL1        0.0115
     22 C         136.7708  138.3182  154.5080 C.ar    1  UNL1        0.0054
     23 O         144.4492  138.9746  163.7044 O.3     1  UNL1       -0.4791
     24 C         143.8482  139.7791  164.8186 C.3     1  UNL1        0.1687
     25 C         143.2192  139.0850  165.9902 C.3     1  UNL1        0.0609
     26 C         142.6182  139.8895  167.1044 C.3     1  UNL1        0.0758
     27 N         142.6462  141.3881  167.0471 N.3     1  UNL1       -0.2737
     28 C         143.2751  142.0823  165.8755 C.3     1  UNL1        0.0758
     29 C         143.8762  141.2778  164.7613 C.3     1  UNL1        0.0609
     30 C         142.0451  142.1926  168.1614 C.3     1  UNL1        0.0575
     31 C         140.6498  142.7420  168.1990 C.3     1  UNL1        0.0160
     32 C         140.4763  143.4779  169.4945 C.3     1  UNL1        0.0014
     33 C         141.7642  143.3833  170.2576 C.3     1  UNL1        0.0014
     34 C         142.7338  142.5889  169.4336 C.3     1  UNL1        0.0160
@<TRIPOS>BOND
     1     7     8    2
     2     8    16    1
     3    16    17   ar
     4    17    18   ar
     5    18    19   ar
     6    19    20    1
     7    19    21   ar
     8    21    22   ar
     9     8     9   am
    10     9    10    1
    11    10    11    1
    12    11    12    1
    13    12     1    1
    14     1     2   ar
    15     2     3   ar
    16     3     4   ar
    17     4    23    1
    18    23    24    1
    19    24    25    1
    20    25    26    1
    21    26    27    1
    22    27    30    1
    23    30    31    1
    24    31    32    1
    25    32    33    1
    26    33    34    1
    27    27    28    1
    28    28    29    1
    29     4     5   ar
    30     5     6   ar
    31    12    13   am
    32    13    14    2
    33    13    15    1
    34    22    16   ar
    35    15     9    1
    36     6     1   ar
    37    29    24    1
    38    34    30    1
@<TRIPOS>MOLECULE
*****
 34 38 0 0 0
SMALL
GASTEIGER

@<TRIPOS>ATOM
      1 C         142.3112  139.7851  160.4345 C.ar    1  UNL1        0.0541
      2 C         141.6747  140.6298  159.3708 C.ar    1  UNL1        0.0180
      3 C         141.4632  140.0702  157.9953 C.ar    1  UNL1        0.0382
      4 C         141.8882  138.6659  157.6834 C.ar    1  UNL1        0.1385
      5 C         142.5247  137.8211  158.7470 C.ar    1  UNL1        0.0382
      6 C         142.7362  138.3807  160.1225 C.ar    1  UNL1        0.0180
      7 O         144.2083  143.0685  166.1677 O.2     1  UNL1       -0.2699
      8 C         143.1574  142.0234  165.9366 C.2     1  UNL1        0.2494
      9 N         142.9459  141.4638  164.5611 N.am    1  UNL1       -0.2660
     10 C         141.8950  140.4187  164.3300 C.3     1  UNL1        0.1160
     11 C         141.6835  139.8592  162.9544 C.3     1  UNL1        0.1197
     12 N         142.5228  140.3447  161.8100 N.am    1  UNL1       -0.2555
     13 C         143.5737  141.3898  162.0411 C.2     1  UNL1        0.2497
     14 O         144.4130  141.8753  160.8967 O.2     1  UNL1       -0.2727
     15 C         143.7852  141.9494  163.4166 C.3     1  UNL1        0.1799
     16 C         142.3181  141.5379  167.0811 C.ar    1  UNL1        0.0536
     17 C         141.1058  142.3134  167.5041 C.ar    1  UNL1        0.0054
     18 C         140.2665  141.8279  168.6485 C.ar    1  UNL1        0.0115
     19 C         140.6395  140.5668  169.3700 C.ar    1  UNL1        0.0577
     20 CL        139.8001  140.0813  170.5145 Cl      1  UNL1       -0.0822
     21 C         141.8517  139.7913  168.9471 C.ar    1  UNL1        0.0115
     22 C         142.6910  140.2768  167.8026 C.ar    1  UNL1        0.0054
     23 O         141.6766  138.1063  156.3079 O.3     1  UNL1       -0.4791
     24 C         142.1349  136.7148  155.9856 C.3     1  UNL1        0.1687
     25 C         143.5986  136.3870  155.9917 C.3     1  UNL1        0.0609
     26 C         144.0568  134.9955  155.6694 C.3     1  UNL1        0.0758
     27 N         143.0514  133.9319  155.3410 N.3     1  UNL1       -0.2737
     28 C         141.5876  134.2598  155.3349 C.3     1  UNL1        0.0758
     29 C         141.1294  135.6512  155.6572 C.3     1  UNL1        0.0609
     30 C         143.5097  132.5405  155.0187 C.3     1  UNL1        0.0575
     31 C         143.1128  131.7381  153.8150 C.3     1  UNL1        0.0160
     32 C         143.8031  130.4088  153.8959 C.3     1  UNL1        0.0014
     33 C         144.6266  130.3897  155.1496 C.3     1  UNL1        0.0014
     34 C         144.4452  131.7071  155.8434 C.3     1  UNL1        0.0160
@<TRIPOS>BOND
     1     7     8    2
     2     8    16    1
     3    16    17   ar
     4    17    18   ar
     5    18    19   ar
     6    19    20    1
     7    19    21   ar
     8    21    22   ar
     9     8     9   am
    10     9    10    1
    11    10    11    1
    12    11    12    1
    13    12     1    1
    14     1     2   ar
    15     2     3   ar
    16     3     4   ar
    17     4    23    1
    18    23    24    1
    19    24    25    1
    20    25    26    1
    21    26    27    1
    22    27    30    1
    23    30    31    1
    24    31    32    1
    25    32    33    1
    26    33    34    1
    27    27    28    1
    28    28    29    1
    29     4     5   ar
    30     5     6   ar
    31    12    13   am
    32    13    14    2
    33    13    15    1
    34    22    16   ar
    35    15     9    1
    36     6     1   ar
    37    29    24    1
    38    34    30    1
@<TRIPOS>MOLECULE
*****
 34 38 0 0 0
SMALL
GASTEIGER

@<TRIPOS>ATOM
      1 C         141.4216  144.0134  158.9680 C.ar    1  UNL1        0.0541
      2 C         141.7791  145.3794  158.4619 C.ar    1  UNL1        0.0180
      3 C         141.0046  145.9861  157.3295 C.ar    1  UNL1        0.0382
      4 C         139.8728  145.2268  156.7033 C.ar    1  UNL1        0.1385
      5 C         139.5153  143.8607  157.2093 C.ar    1  UNL1        0.0382
      6 C         140.2897  143.2540  158.3416 C.ar    1  UNL1        0.0180
      7 O         145.9359  141.1420  163.2838 O.2     1  UNL1       -0.2699
      8 C         144.5193  141.5865  163.4973 C.2     1  UNL1        0.2494
      9 N         143.7449  142.1932  162.3650 N.am    1  UNL1       -0.2660
     10 C         142.3282  142.6377  162.5784 C.3     1  UNL1        0.1160
     11 C         141.5538  143.2445  161.4460 C.3     1  UNL1        0.1197
     12 N         142.1960  143.4067  160.1003 N.am    1  UNL1       -0.2555
     13 C         143.6127  142.9622  159.8868 C.2     1  UNL1        0.2497
     14 O         144.2549  143.1244  158.5410 O.2     1  UNL1       -0.2727
     15 C         144.3871  142.3555  161.0191 C.3     1  UNL1        0.1799
     16 C         143.8770  141.4243  164.8432 C.ar    1  UNL1        0.0536
     17 C         143.3304  140.0903  165.2574 C.ar    1  UNL1        0.0054
     18 C         142.6883  139.9281  166.6032 C.ar    1  UNL1        0.0115
     19 C         142.5927  141.1000  167.5348 C.ar    1  UNL1        0.0577
     20 CL        141.9504  140.9377  168.8807 Cl      1  UNL1       -0.0822
     21 C         143.1393  142.4339  167.1205 C.ar    1  UNL1        0.0115
     22 C         143.7814  142.5961  165.7747 C.ar    1  UNL1        0.0054
     23 O         139.0983  145.8335  155.5710 O.3     1  UNL1       -0.4791
     24 C         139.2054  147.3033  155.2918 C.3     1  UNL1        0.1687
     25 C         140.0010  147.7874  154.1160 C.3     1  UNL1        0.0609
     26 C         140.1081  149.2573  153.8368 C.3     1  UNL1        0.0758
     27 N         139.4195  150.2431  154.7334 N.3     1  UNL1       -0.2737
     28 C         138.6238  149.7591  155.9093 C.3     1  UNL1        0.0758
     29 C         138.5168  148.2892  156.1885 C.3     1  UNL1        0.0609
     30 C         139.5266  151.7130  154.4542 C.3     1  UNL1        0.0575
     31 C         140.6827  152.4030  153.7928 C.3     1  UNL1        0.0160
     32 C         140.3669  153.8674  153.7173 C.3     1  UNL1        0.0014
     33 C         139.0157  154.0826  154.3320 C.3     1  UNL1        0.0014
     34 C         138.4964  152.7511  154.7874 C.3     1  UNL1        0.0160
@<TRIPOS>BOND
     1     7     8    2
     2     8    16    1
     3    16    17   ar
     4    17    18   ar
     5    18    19   ar
     6    19    20    1
     7    19    21   ar
     8    21    22   ar
     9     8     9   am
    10     9    10    1
    11    10    11    1
    12    11    12    1
    13    12     1    1
    14     1     2   ar
    15     2     3   ar
    16     3     4   ar
    17     4    23    1
    18    23    24    1
    19    24    25    1
    20    25    26    1
    21    26    27    1
    22    27    30    1
    23    30    31    1
    24    31    32    1
    25    32    33    1
    26    33    34    1
    27    27    28    1
    28    28    29    1
    29     4     5   ar
    30     5     6   ar
    31    12    13   am
    32    13    14    2
    33    13    15    1
    34    22    16   ar
    35    15     9    1
    36     6     1   ar
    37    29    24    1
    38    34    30    1
