@<TRIPOS>MOLECULE
*****
 34 37 0 0 0
SMALL
GASTEIGER

@<TRIPOS>ATOM
      1 N         143.8971  138.6845  163.3243 N.3     1  UNL1       -0.2863
      2 H         144.8744  138.4431  163.4887 H       1  UNL1        0.1240
      3 C         143.3775  139.2792  164.5996 C.3     1  UNL1        0.1341
      4 C         142.4239  138.6235  165.5539 C.3     1  UNL1        0.0471
      5 C         142.1774  139.5731  166.6886 C.3     1  UNL1        0.1031
      6 N         142.9786  140.8156  166.4356 N.am    1  UNL1       -0.2252
      7 C         143.0293  142.0270  167.3186 C.2     1  UNL1        0.2575
      8 O         143.8805  143.2006  166.9337 O.2     1  UNL1       -0.2694
      9 C         143.7204  140.6340  165.1445 C.2     1  UNL1        0.2459
     10 O         144.6430  141.6320  164.5098 O.2     1  UNL1       -0.2730
     11 C         142.2287  142.0649  168.5866 C.ar    1  UNL1        0.0851
     12 C         140.7572  141.7763  168.5533 C.ar    1  UNL1        0.0089
     13 C         139.9566  141.8142  169.8212 C.ar    1  UNL1        0.0209
     14 C         140.6276  142.1407  171.1224 C.ar    1  UNL1        0.1003
     15 N         142.0992  142.4294  171.1557 N.ar    1  UNL1       -0.2295
     16 C         142.8998  142.3915  169.8877 C.ar    1  UNL1        0.1297
     17 N         144.3713  142.6802  169.9210 N.pl3   1  UNL1       -0.3425
     18 H         144.8117  142.8945  170.7750 H       1  UNL1        0.1437
     19 H         144.8967  142.6553  169.0888 H       1  UNL1        0.1437
     20 C         143.8557  139.4809  162.0538 C.3     1  UNL1        0.1151
     21 N         141.4074  139.7266  161.0095 N.ar    1  UNL1       -0.3070
     22 C         140.7110  139.1799  159.7986 C.ar    1  UNL1        0.1786
     23 N         141.6814  138.3056  159.0610 N.ar    1  UNL1       -0.2226
     24 C         142.9776  138.3120  159.8161 C.ar    1  UNL1        0.1147
     25 C         142.8082  139.1901  161.0203 C.ar    1  UNL1        0.0739
     26 C         140.8082  140.6479  162.0303 C.3     1  UNL1        0.1340
     27 C         138.4874  138.9607  165.4970 C.ar    1  UNL1        0.0684
     28 C         138.8919  138.0694  164.3603 C.ar    1  UNL1        0.0100
     29 C         139.6655  138.6318  163.2048 C.ar    1  UNL1       -0.0017
     30 C         140.0346  140.0855  163.1859 C.ar    1  UNL1        0.0005
     31 C         139.6302  140.9768  164.3225 C.ar    1  UNL1       -0.0017
     32 C         138.8566  140.4144  165.4780 C.ar    1  UNL1        0.0100
     33 N         136.9403  137.8360  167.8080 N.1     1  UNL1       -0.1908
     34 C         137.7138  138.3983  166.6525 C.1     1  UNL1        0.1004
@<TRIPOS>BOND
     1    33    34    3
     2    34    27    1
     3    27    28   ar
     4    28    29   ar
     5    29    30   ar
     6    30    26    1
     7    26    21    1
     8    21    22   ar
     9    22    23   ar
    10    23    24   ar
    11    24    25   ar
    12    25    20    1
    13    20     1    1
    14     3     1    1
    15     3     4    1
    16     4     5    1
    17     5     6    1
    18     6     7   am
    19     7     8    2
    20     7    11    1
    21    11    12   ar
    22    12    13   ar
    23    13    14   ar
    24    14    15   ar
    25    15    16   ar
    26    16    17    1
    27     6     9   am
    28     9    10    2
    29    30    31   ar
    30    31    32   ar
    31    32    27   ar
    32    25    21   ar
    33     9     3    1
    34    16    11   ar
    35     1     2    1
    36    17    18    1
    37    17    19    1
@<TRIPOS>MOLECULE
*****
 34 37 0 0 0
SMALL
GASTEIGER

@<TRIPOS>ATOM
      1 N         140.1685  137.4891  163.5208 N.3     1  UNL1       -0.2863
      2 H         140.9118  136.8094  163.6818 H       1  UNL1        0.1240
      3 C         140.1567  138.4070  164.7070 C.3     1  UNL1        0.1341
      4 C         138.9954  139.2367  165.1684 C.3     1  UNL1        0.0471
      5 C         139.4253  139.9990  166.3867 C.3     1  UNL1        0.1031
      6 N         140.8523  139.6403  166.6782 N.am    1  UNL1       -0.2252
      7 C         141.6816  140.1722  167.8092 C.2     1  UNL1        0.2575
      8 O         143.1021  139.7196  167.9752 O.2     1  UNL1       -0.2694
      9 C         141.3044  138.6565  165.6401 C.2     1  UNL1        0.2459
     10 O         142.6652  138.0317  165.5508 O.2     1  UNL1       -0.2730
     11 C         141.0905  141.1567  168.7744 C.ar    1  UNL1        0.0851
     12 C         140.8896  142.5844  168.3606 C.ar    1  UNL1        0.0089
     13 C         140.2986  143.5689  169.3257 C.ar    1  UNL1        0.0209
     14 C         139.9084  143.1256  170.7046 C.ar    1  UNL1        0.1003
     15 N         140.1094  141.6979  171.1183 N.ar    1  UNL1       -0.2295
     16 C         140.7004  140.7134  170.1533 C.ar    1  UNL1        0.1297
     17 N         140.9013  139.2857  170.5671 N.pl3   1  UNL1       -0.3425
     18 H         140.6452  138.9948  171.4721 H       1  UNL1        0.1437
     19 H         141.2892  138.6396  169.9336 H       1  UNL1        0.1437
     20 C         140.3810  138.0452  162.1439 C.3     1  UNL1        0.1151
     21 N         141.8574  140.0813  161.2385 N.ar    1  UNL1       -0.3070
     22 C         143.3244  140.3198  161.0357 C.ar    1  UNL1        0.1786
     23 N         144.0586  139.0835  161.4635 N.ar    1  UNL1       -0.2226
     24 C         143.0453  138.0810  161.9307 C.ar    1  UNL1        0.1147
     25 C         141.6850  138.6976  161.7917 C.ar    1  UNL1        0.0739
     26 C         140.7563  141.0553  160.9406 C.3     1  UNL1        0.1340
     27 C         139.1748  143.7285  164.1967 C.ar    1  UNL1        0.0684
     28 C         140.4644  142.9883  164.3943 C.ar    1  UNL1        0.0100
     29 C         140.9916  142.0973  163.3089 C.ar    1  UNL1       -0.0017
     30 C         140.2292  141.9463  162.0260 C.ar    1  UNL1        0.0005
     31 C         138.9396  142.6865  161.8284 C.ar    1  UNL1       -0.0017
     32 C         138.4124  143.5776  162.9138 C.ar    1  UNL1        0.0100
     33 N         138.1204  145.5106  166.3675 N.1     1  UNL1       -0.1908
     34 C         138.6476  144.6196  165.2821 C.1     1  UNL1        0.1004
@<TRIPOS>BOND
     1    33    34    3
     2    34    27    1
     3    27    28   ar
     4    28    29   ar
     5    29    30   ar
     6    30    26    1
     7    26    21    1
     8    21    22   ar
     9    22    23   ar
    10    23    24   ar
    11    24    25   ar
    12    25    20    1
    13    20     1    1
    14     3     1    1
    15     3     4    1
    16     4     5    1
    17     5     6    1
    18     6     7   am
    19     7     8    2
    20     7    11    1
    21    11    12   ar
    22    12    13   ar
    23    13    14   ar
    24    14    15   ar
    25    15    16   ar
    26    16    17    1
    27     6     9   am
    28     9    10    2
    29    30    31   ar
    30    31    32   ar
    31    32    27   ar
    32    25    21   ar
    33     9     3    1
    34    16    11   ar
    35     1     2    1
    36    17    18    1
    37    17    19    1
@<TRIPOS>MOLECULE
*****
 34 37 0 0 0
SMALL
GASTEIGER

@<TRIPOS>ATOM
      1 N         144.2900  139.4429  163.6109 N.3     1  UNL1       -0.2863
      2 H         145.2895  139.4975  163.8066 H       1  UNL1        0.1240
      3 C         143.5849  140.0550  164.7849 C.3     1  UNL1        0.1341
      4 C         142.9110  141.3949  164.8081 C.3     1  UNL1        0.0471
      5 C         142.3395  141.6027  166.1793 C.3     1  UNL1        0.1031
      6 N         142.6603  140.3912  167.0035 N.am    1  UNL1       -0.2252
      7 C         142.2784  140.1743  168.4378 C.2     1  UNL1        0.2575
      8 O         142.6711  138.9054  169.1348 O.2     1  UNL1       -0.2694
      9 C         143.4299  139.4347  166.1418 C.2     1  UNL1        0.2459
     10 O         143.9529  138.0933  166.5629 O.2     1  UNL1       -0.2730
     11 C         141.5038  141.2262  169.1750 C.ar    1  UNL1        0.0851
     12 C         142.1238  142.5659  169.4408 C.ar    1  UNL1        0.0089
     13 C         141.3493  143.6179  170.1780 C.ar    1  UNL1        0.0209
     14 C         139.9547  143.3300  170.6495 C.ar    1  UNL1        0.1003
     15 N         139.3346  141.9903  170.3837 N.ar    1  UNL1       -0.2295
     16 C         140.1092  140.9383  169.6465 C.ar    1  UNL1        0.1297
     17 N         139.4891  139.5987  169.3807 N.pl3   1  UNL1       -0.3425
     18 H         138.5738  139.4098  169.6901 H       1  UNL1        0.1437
     19 H         139.9975  138.9083  168.8968 H       1  UNL1        0.1437
     20 C         144.0865  140.0072  162.2361 C.3     1  UNL1        0.1151
     21 N         141.6659  139.5609  161.1936 N.ar    1  UNL1       -0.3070
     22 C         141.1259  138.6831  160.1038 C.ar    1  UNL1        0.1786
     23 N         142.2723  137.9137  159.5173 N.ar    1  UNL1       -0.2226
     24 C         143.5210  138.3161  160.2447 C.ar    1  UNL1        0.1147
     25 C         143.1462  139.3341  161.2807 C.ar    1  UNL1        0.0739
     26 C         140.8663  140.5006  162.0465 C.3     1  UNL1        0.1340
     27 C         138.5061  138.9169  165.5353 C.ar    1  UNL1        0.0684
     28 C         138.1862  140.2664  164.9641 C.ar    1  UNL1        0.0100
     29 C         138.9729  140.7943  163.8012 C.ar    1  UNL1       -0.0017
     30 C         140.0796  139.9727  163.2095 C.ar    1  UNL1        0.0005
     31 C         140.3995  138.6232  163.7807 C.ar    1  UNL1       -0.0017
     32 C         139.6128  138.0953  164.9436 C.ar    1  UNL1        0.0100
     33 N         136.9327  137.8611  167.8612 N.1     1  UNL1       -0.1908
     34 C         137.7194  138.3890  166.6983 C.1     1  UNL1        0.1004
@<TRIPOS>BOND
     1    33    34    3
     2    34    27    1
     3    27    28   ar
     4    28    29   ar
     5    29    30   ar
     6    30    26    1
     7    26    21    1
     8    21    22   ar
     9    22    23   ar
    10    23    24   ar
    11    24    25   ar
    12    25    20    1
    13    20     1    1
    14     3     1    1
    15     3     4    1
    16     4     5    1
    17     5     6    1
    18     6     7   am
    19     7     8    2
    20     7    11    1
    21    11    12   ar
    22    12    13   ar
    23    13    14   ar
    24    14    15   ar
    25    15    16   ar
    26    16    17    1
    27     6     9   am
    28     9    10    2
    29    30    31   ar
    30    31    32   ar
    31    32    27   ar
    32    25    21   ar
    33     9     3    1
    34    16    11   ar
    35     1     2    1
    36    17    18    1
    37    17    19    1
@<TRIPOS>MOLECULE
*****
 34 37 0 0 0
SMALL
GASTEIGER

@<TRIPOS>ATOM
      1 N         143.9490  139.3410  162.8929 N.3     1  UNL1       -0.2863
      2 H         144.8822  139.7523  162.9143 H       1  UNL1        0.1240
      3 C         143.3515  139.5522  164.2524 C.3     1  UNL1        0.1341
      4 C         142.4098  138.6206  164.9561 C.3     1  UNL1        0.0471
      5 C         142.0671  139.2248  166.2856 C.3     1  UNL1        0.1031
      6 N         142.7971  140.5299  166.4035 N.am    1  UNL1       -0.2252
      7 C         142.7428  141.4679  167.5728 C.2     1  UNL1        0.2575
      8 O         143.5312  142.7437  167.5480 O.2     1  UNL1       -0.2694
      9 C         143.5909  140.7322  165.1470 C.2     1  UNL1        0.2459
     10 O         144.4698  141.9081  164.8391 O.2     1  UNL1       -0.2730
     11 C         141.9000  141.1300  168.7668 C.ar    1  UNL1        0.0851
     12 C         140.4735  140.7050  168.5819 C.ar    1  UNL1        0.0089
     13 C         139.6307  140.3672  169.7758 C.ar    1  UNL1        0.0209
     14 C         140.2145  140.4545  171.1548 C.ar    1  UNL1        0.1003
     15 N         141.6411  140.8796  171.3398 N.ar    1  UNL1       -0.2295
     16 C         142.4839  141.2174  170.1458 C.ar    1  UNL1        0.1297
     17 N         143.9104  141.6424  170.3308 N.pl3   1  UNL1       -0.3425
     18 H         144.2935  141.6997  171.2358 H       1  UNL1        0.1437
     19 H         144.4635  141.8641  169.5471 H       1  UNL1        0.1437
     20 C         143.2616  139.8899  161.6779 C.3     1  UNL1        0.1151
     21 N         141.6818  142.0298  161.4135 N.ar    1  UNL1       -0.3070
     22 C         141.9072  143.5101  161.3240 C.ar    1  UNL1        0.1786
     23 N         143.3838  143.7602  161.4109 N.ar    1  UNL1       -0.2226
     24 C         144.0708  142.4344  161.5541 C.ar    1  UNL1        0.1147
     25 C         143.0190  141.3650  161.5556 C.ar    1  UNL1        0.0739
     26 C         140.3526  141.3361  161.3686 C.3     1  UNL1        0.1340
     27 C         138.6238  139.5411  165.1155 C.ar    1  UNL1        0.0684
     28 C         139.0412  140.9818  165.0975 C.ar    1  UNL1        0.0100
     29 C         139.6174  141.5801  163.8485 C.ar    1  UNL1       -0.0017
     30 C         139.7763  140.7378  162.6176 C.ar    1  UNL1        0.0005
     31 C         139.3590  139.2972  162.6356 C.ar    1  UNL1       -0.0017
     32 C         138.7827  138.6988  163.8846 C.ar    1  UNL1        0.0100
     33 N         137.4713  138.3445  167.6135 N.1     1  UNL1       -0.1908
     34 C         138.0476  138.9428  166.3645 C.1     1  UNL1        0.1004
@<TRIPOS>BOND
     1    33    34    3
     2    34    27    1
     3    27    28   ar
     4    28    29   ar
     5    29    30   ar
     6    30    26    1
     7    26    21    1
     8    21    22   ar
     9    22    23   ar
    10    23    24   ar
    11    24    25   ar
    12    25    20    1
    13    20     1    1
    14     3     1    1
    15     3     4    1
    16     4     5    1
    17     5     6    1
    18     6     7   am
    19     7     8    2
    20     7    11    1
    21    11    12   ar
    22    12    13   ar
    23    13    14   ar
    24    14    15   ar
    25    15    16   ar
    26    16    17    1
    27     6     9   am
    28     9    10    2
    29    30    31   ar
    30    31    32   ar
    31    32    27   ar
    32    25    21   ar
    33     9     3    1
    34    16    11   ar
    35     1     2    1
    36    17    18    1
    37    17    19    1
@<TRIPOS>MOLECULE
*****
 34 37 0 0 0
SMALL
GASTEIGER

@<TRIPOS>ATOM
      1 N         143.7483  141.1188  162.5678 N.3     1  UNL1       -0.2863
      2 H         144.1020  142.0190  162.2437 H       1  UNL1        0.1240
      3 C         143.1658  141.3479  163.9310 C.3     1  UNL1        0.1341
      4 C         142.3421  142.5291  164.3508 C.3     1  UNL1        0.0471
      5 C         141.9720  142.3471  165.7930 C.3     1  UNL1        0.1031
      6 N         142.5669  141.0534  166.2644 N.am    1  UNL1       -0.2252
      7 C         142.4454  140.4783  167.6444 C.2     1  UNL1        0.2575
      8 O         143.0979  139.1677  167.9709 O.2     1  UNL1       -0.2694
      9 C         143.3047  140.4358  165.1137 C.2     1  UNL1        0.2459
     10 O         144.0506  139.1347  165.1410 O.2     1  UNL1       -0.2730
     11 C         141.6712  141.2137  168.6980 C.ar    1  UNL1        0.0851
     12 C         140.2367  140.8610  168.9579 C.ar    1  UNL1        0.0089
     13 C         139.4626  141.5964  170.0114 C.ar    1  UNL1        0.0209
     14 C         140.1230  142.6844  170.8051 C.ar    1  UNL1        0.1003
     15 N         141.5576  143.0371  170.5452 N.ar    1  UNL1       -0.2295
     16 C         142.3318  142.3018  169.4916 C.ar    1  UNL1        0.1297
     17 N         143.7663  142.6545  169.2317 N.pl3   1  UNL1       -0.3425
     18 H         144.1998  143.3686  169.7526 H       1  UNL1        0.1437
     19 H         144.2744  142.1718  168.5403 H       1  UNL1        0.1437
     20 C         142.8893  140.5695  161.4677 C.3     1  UNL1        0.1151
     21 N         140.4746  139.4393  161.6601 N.ar    1  UNL1       -0.3070
     22 C         139.9689  138.0706  162.0078 C.ar    1  UNL1        0.1786
     23 N         141.1541  137.1990  162.3007 N.ar    1  UNL1       -0.2226
     24 C         142.3924  138.0291  162.1340 C.ar    1  UNL1        0.1147
     25 C         141.9725  139.4136  161.7381 C.ar    1  UNL1        0.0739
     26 C         139.6308  140.6254  161.2980 C.3     1  UNL1        0.1340
     27 C         138.6144  143.7013  164.4214 C.ar    1  UNL1        0.0684
     28 C         139.0807  144.1366  163.0638 C.ar    1  UNL1        0.0100
     29 C         139.4195  143.1113  162.0227 C.ar    1  UNL1       -0.0017
     30 C         139.2920  141.6507  162.3391 C.ar    1  UNL1        0.0005
     31 C         138.8258  141.2153  163.6967 C.ar    1  UNL1       -0.0017
     32 C         138.4869  142.2406  164.7378 C.ar    1  UNL1        0.0100
     33 N         137.9368  145.7519  166.5036 N.1     1  UNL1       -0.1908
     34 C         138.2756  144.7266  165.4625 C.1     1  UNL1        0.1004
@<TRIPOS>BOND
     1    33    34    3
     2    34    27    1
     3    27    28   ar
     4    28    29   ar
     5    29    30   ar
     6    30    26    1
     7    26    21    1
     8    21    22   ar
     9    22    23   ar
    10    23    24   ar
    11    24    25   ar
    12    25    20    1
    13    20     1    1
    14     3     1    1
    15     3     4    1
    16     4     5    1
    17     5     6    1
    18     6     7   am
    19     7     8    2
    20     7    11    1
    21    11    12   ar
    22    12    13   ar
    23    13    14   ar
    24    14    15   ar
    25    15    16   ar
    26    16    17    1
    27     6     9   am
    28     9    10    2
    29    30    31   ar
    30    31    32   ar
    31    32    27   ar
    32    25    21   ar
    33     9     3    1
    34    16    11   ar
    35     1     2    1
    36    17    18    1
    37    17    19    1
@<TRIPOS>MOLECULE
*****
 34 37 0 0 0
SMALL
GASTEIGER

@<TRIPOS>ATOM
      1 N         143.3387  143.2856  162.9877 N.3     1  UNL1       -0.2863
      2 H         143.1167  144.2756  162.8829 H       1  UNL1        0.1240
      3 C         142.8615  142.8768  164.3497 C.3     1  UNL1        0.1341
      4 C         143.5287  141.8862  165.2572 C.3     1  UNL1        0.0471
      5 C         142.7127  141.7839  166.5117 C.3     1  UNL1        0.1031
      6 N         141.5412  142.7114  166.3795 N.am    1  UNL1       -0.2252
      7 C         140.4665  142.9257  167.4037 C.2     1  UNL1        0.2575
      8 O         139.3513  143.8908  167.1299 O.2     1  UNL1       -0.2694
      9 C         141.6332  143.3868  165.0433 C.2     1  UNL1        0.2459
     10 O         140.6665  144.3951  164.4968 O.2     1  UNL1       -0.2730
     11 C         140.5070  142.1750  168.7018 C.ar    1  UNL1        0.0851
     12 C         140.6396  140.6810  168.7002 C.ar    1  UNL1        0.0089
     13 C         140.6800  139.9302  169.9982 C.ar    1  UNL1        0.0209
     14 C         140.5878  140.6737  171.2977 C.ar    1  UNL1        0.1003
     15 N         140.4552  142.1678  171.2993 N.ar    1  UNL1       -0.2295
     16 C         140.4148  142.9185  170.0013 C.ar    1  UNL1        0.1297
     17 N         140.2821  144.4126  170.0028 N.pl3   1  UNL1       -0.3425
     18 H         140.2216  144.9005  170.8558 H       1  UNL1        0.1437
     19 H         140.2556  144.9053  169.1509 H       1  UNL1        0.1437
     20 C         142.8094  142.5916  161.7678 C.3     1  UNL1        0.1151
     21 N         140.3002  141.7613  161.3681 N.ar    1  UNL1       -0.3070
     22 C         139.0394  142.3993  160.8647 C.ar    1  UNL1        0.1786
     23 N         139.3445  143.8299  160.5322 N.ar    1  UNL1       -0.2226
     24 C         140.7940  144.0760  160.8301 C.ar    1  UNL1        0.1147
     25 C         141.3846  142.7976  161.3466 C.ar    1  UNL1        0.0739
     26 C         140.4504  140.3372  161.8144 C.3     1  UNL1        0.1340
     27 C         138.4020  138.9268  165.5647 C.ar    1  UNL1        0.0684
     28 C         138.8733  137.9303  164.5475 C.ar    1  UNL1        0.0100
     29 C         139.5561  138.4005  163.2974 C.ar    1  UNL1       -0.0017
     30 C         139.7676  139.8671  163.0645 C.ar    1  UNL1        0.0005
     31 C         139.2962  140.8636  164.0817 C.ar    1  UNL1       -0.0017
     32 C         138.6134  140.3934  165.3318 C.ar    1  UNL1        0.0100
     33 N         137.0363  137.9866  168.0649 N.1     1  UNL1       -0.1908
     34 C         137.7191  138.4567  166.8148 C.1     1  UNL1        0.1004
@<TRIPOS>BOND
     1    33    34    3
     2    34    27    1
     3    27    28   ar
     4    28    29   ar
     5    29    30   ar
     6    30    26    1
     7    26    21    1
     8    21    22   ar
     9    22    23   ar
    10    23    24   ar
    11    24    25   ar
    12    25    20    1
    13    20     1    1
    14     3     1    1
    15     3     4    1
    16     4     5    1
    17     5     6    1
    18     6     7   am
    19     7     8    2
    20     7    11    1
    21    11    12   ar
    22    12    13   ar
    23    13    14   ar
    24    14    15   ar
    25    15    16   ar
    26    16    17    1
    27     6     9   am
    28     9    10    2
    29    30    31   ar
    30    31    32   ar
    31    32    27   ar
    32    25    21   ar
    33     9     3    1
    34    16    11   ar
    35     1     2    1
    36    17    18    1
    37    17    19    1
@<TRIPOS>MOLECULE
*****
 34 37 0 0 0
SMALL
GASTEIGER

@<TRIPOS>ATOM
      1 N         141.3786  144.0111  162.6227 N.3     1  UNL1       -0.2863
      2 H         140.4546  144.2704  162.2773 H       1  UNL1        0.1240
      3 C         141.1779  143.3951  163.9756 C.3     1  UNL1        0.1341
      4 C         139.9161  142.7558  164.4749 C.3     1  UNL1        0.0471
      5 C         140.1621  142.2759  165.8746 C.3     1  UNL1        0.1031
      6 N         141.5759  142.6186  166.2403 N.am    1  UNL1       -0.2252
      7 C         142.2445  142.3216  167.5498 C.2     1  UNL1        0.2575
      8 O         143.6716  142.7268  167.7721 O.2     1  UNL1       -0.2694
      9 C         142.2037  143.3103  165.0667 C.2     1  UNL1        0.2459
     10 O         143.6103  143.8265  164.9965 O.2     1  UNL1       -0.2730
     11 C         141.4861  141.6195  168.6370 C.ar    1  UNL1        0.0851
     12 C         141.7366  140.1656  168.9075 C.ar    1  UNL1        0.0089
     13 C         140.9782  139.4634  169.9946 C.ar    1  UNL1        0.0209
     14 C         139.9694  140.2153  170.8113 C.ar    1  UNL1        0.1003
     15 N         139.7189  141.6693  170.5407 N.ar    1  UNL1       -0.2295
     16 C         140.4773  142.3715  169.4536 C.ar    1  UNL1        0.1297
     17 N         140.2268  143.8254  169.1831 N.pl3   1  UNL1       -0.3425
     18 H         139.5647  144.3188  169.7191 H       1  UNL1        0.1437
     19 H         140.7245  144.2862  168.4696 H       1  UNL1        0.1437
     20 C         142.0438  143.2251  161.5319 C.3     1  UNL1        0.1151
     21 N         142.9544  140.7446  161.9355 N.ar    1  UNL1       -0.3070
     22 C         144.2798  140.1487  162.3073 C.ar    1  UNL1        0.1786
     23 N         145.2626  141.2700  162.4712 N.ar    1  UNL1       -0.2226
     24 C         144.5446  142.5590  162.2007 C.ar    1  UNL1        0.1147
     25 C         143.1181  142.2343  161.8696 C.ar    1  UNL1        0.0739
     26 C         141.6878  139.9845  161.6753 C.3     1  UNL1        0.1340
     27 C         139.0195  138.8165  165.1055 C.ar    1  UNL1        0.0684
     28 C         140.5088  138.8263  165.2835 C.ar    1  UNL1        0.0100
     29 C         141.3983  139.2157  164.1401 C.ar    1  UNL1       -0.0017
     30 C         140.7983  139.5951  162.8187 C.ar    1  UNL1        0.0005
     31 C         139.3090  139.5853  162.6407 C.ar    1  UNL1       -0.0017
     32 C         138.4196  139.1959  163.7841 C.ar    1  UNL1        0.0100
     33 N         137.2406  138.0378  167.3923 N.1     1  UNL1       -0.1908
     34 C         138.1301  138.4271  166.2489 C.1     1  UNL1        0.1004
@<TRIPOS>BOND
     1    33    34    3
     2    34    27    1
     3    27    28   ar
     4    28    29   ar
     5    29    30   ar
     6    30    26    1
     7    26    21    1
     8    21    22   ar
     9    22    23   ar
    10    23    24   ar
    11    24    25   ar
    12    25    20    1
    13    20     1    1
    14     3     1    1
    15     3     4    1
    16     4     5    1
    17     5     6    1
    18     6     7   am
    19     7     8    2
    20     7    11    1
    21    11    12   ar
    22    12    13   ar
    23    13    14   ar
    24    14    15   ar
    25    15    16   ar
    26    16    17    1
    27     6     9   am
    28     9    10    2
    29    30    31   ar
    30    31    32   ar
    31    32    27   ar
    32    25    21   ar
    33     9     3    1
    34    16    11   ar
    35     1     2    1
    36    17    18    1
    37    17    19    1
@<TRIPOS>MOLECULE
*****
 34 37 0 0 0
SMALL
GASTEIGER

@<TRIPOS>ATOM
      1 N         142.6925  139.1072  167.3417 N.3     1  UNL1       -0.2863
      2 H         141.7967  138.6657  167.5490 H       1  UNL1        0.1240
      3 C         142.7223  139.3524  165.8622 C.3     1  UNL1        0.1341
      4 C         143.3992  140.4993  165.1720 C.3     1  UNL1        0.0471
      5 C         143.1756  140.3495  163.6963 C.3     1  UNL1        0.1031
      6 N         142.3604  139.1101  163.4746 N.am    1  UNL1       -0.2252
      7 C         141.9053  138.5800  162.1473 C.2     1  UNL1        0.2575
      8 O         141.0914  137.3216  162.0813 O.2     1  UNL1       -0.2694
      9 C         142.0802  138.4938  164.8131 C.2     1  UNL1        0.2459
     10 O         141.2957  137.2392  165.0593 O.2     1  UNL1       -0.2730
     11 C         142.2640  139.3081  160.8858 C.ar    1  UNL1        0.0851
     12 C         141.2687  140.2267  160.2412 C.ar    1  UNL1        0.0089
     13 C         141.6274  140.9548  158.9798 C.ar    1  UNL1        0.0209
     14 C         142.9814  140.7644  158.3631 C.ar    1  UNL1        0.1003
     15 N         143.9767  139.8458  159.0077 N.ar    1  UNL1       -0.2295
     16 C         143.6181  139.1177  160.2691 C.ar    1  UNL1        0.1297
     17 N         144.6133  138.1991  160.9137 N.pl3   1  UNL1       -0.3425
     18 H         145.5020  138.0742  160.5088 H       1  UNL1        0.1437
     19 H         144.3779  137.7212  161.7416 H       1  UNL1        0.1437
     20 C         142.8403  140.2554  168.2955 C.3     1  UNL1        0.1151
     21 N         140.5765  141.5888  168.7878 N.ar    1  UNL1       -0.3070
     22 C         139.6483  141.7062  169.9602 C.ar    1  UNL1        0.1786
     23 N         140.1873  140.8478  171.0660 N.ar    1  UNL1       -0.2226
     24 C         141.4487  140.1998  170.5770 C.ar    1  UNL1        0.1147
     25 C         141.6892  140.6578  169.1690 C.ar    1  UNL1        0.0739
     26 C         140.4197  142.2808  167.4663 C.3     1  UNL1        0.1340
     27 C         138.7675  140.0363  163.9332 C.ar    1  UNL1        0.0684
     28 C         138.5824  139.4941  165.3195 C.ar    1  UNL1        0.0100
     29 C         139.1331  140.2423  166.4971 C.ar    1  UNL1       -0.0017
     30 C         139.8690  141.5326  166.2886 C.ar    1  UNL1        0.0005
     31 C         140.0541  142.0748  164.9023 C.ar    1  UNL1       -0.0017
     32 C         139.5034  141.3266  163.7246 C.ar    1  UNL1        0.0100
     33 N         137.6661  138.5399  161.5778 N.1     1  UNL1       -0.1908
     34 C         138.2168  139.2881  162.7555 C.1     1  UNL1        0.1004
@<TRIPOS>BOND
     1    33    34    3
     2    34    27    1
     3    27    28   ar
     4    28    29   ar
     5    29    30   ar
     6    30    26    1
     7    26    21    1
     8    21    22   ar
     9    22    23   ar
    10    23    24   ar
    11    24    25   ar
    12    25    20    1
    13    20     1    1
    14     3     1    1
    15     3     4    1
    16     4     5    1
    17     5     6    1
    18     6     7   am
    19     7     8    2
    20     7    11    1
    21    11    12   ar
    22    12    13   ar
    23    13    14   ar
    24    14    15   ar
    25    15    16   ar
    26    16    17    1
    27     6     9   am
    28     9    10    2
    29    30    31   ar
    30    31    32   ar
    31    32    27   ar
    32    25    21   ar
    33     9     3    1
    34    16    11   ar
    35     1     2    1
    36    17    18    1
    37    17    19    1
@<TRIPOS>MOLECULE
*****
 34 37 0 0 0
SMALL
GASTEIGER

@<TRIPOS>ATOM
      1 N         141.1234  144.6859  162.4154 N.3     1  UNL1       -0.2863
      2 H         140.2296  145.1344  162.2145 H       1  UNL1        0.1240
      3 C         140.9919  144.0434  163.7644 C.3     1  UNL1        0.1341
      4 C         139.8749  144.2638  164.7409 C.3     1  UNL1        0.0471
      5 C         140.1470  143.4243  165.9538 C.3     1  UNL1        0.1031
      6 N         141.4323  142.6850  165.7269 N.am    1  UNL1       -0.2252
      7 C         142.0814  141.7306  166.6849 C.2     1  UNL1        0.2575
      8 O         143.3734  141.0625  166.3182 O.2     1  UNL1       -0.2694
      9 C         141.9545  143.0676  164.3738 C.2     1  UNL1        0.2459
     10 O         143.2174  142.5630  163.7411 O.2     1  UNL1       -0.2730
     11 C         141.4385  141.4444  168.0096 C.ar    1  UNL1        0.0851
     12 C         140.1389  140.6977  168.0668 C.ar    1  UNL1        0.0089
     13 C         139.4961  140.4114  169.3915 C.ar    1  UNL1        0.0209
     14 C         140.1529  140.8718  170.6589 C.ar    1  UNL1        0.1003
     15 N         141.4526  141.6186  170.6018 N.ar    1  UNL1       -0.2295
     16 C         142.0954  141.9048  169.2771 C.ar    1  UNL1        0.1297
     17 N         143.3950  142.6515  169.2199 N.pl3   1  UNL1       -0.3425
     18 H         143.8261  142.9537  170.0518 H       1  UNL1        0.1437
     19 H         143.8170  142.8394  168.3505 H       1  UNL1        0.1437
     20 C         141.4679  143.8513  161.2174 C.3     1  UNL1        0.1151
     21 N         140.1235  141.5660  160.8789 N.ar    1  UNL1       -0.3070
     22 C         138.9980  141.1186  159.9939 C.ar    1  UNL1        0.1786
     23 N         138.5945  142.2798  159.1342 N.ar    1  UNL1       -0.2226
     24 C         139.4707  143.4449  159.4880 C.ar    1  UNL1        0.1147
     25 C         140.4156  143.0037  160.5662 C.ar    1  UNL1        0.0739
     26 C         140.8323  140.7236  161.8976 C.3     1  UNL1        0.1340
     27 C         138.5465  138.9810  165.3600 C.ar    1  UNL1        0.0684
     28 C         139.7128  138.2367  164.7807 C.ar    1  UNL1        0.0100
     29 C         140.4748  138.8176  163.6266 C.ar    1  UNL1       -0.0017
     30 C         140.0704  140.1427  163.0518 C.ar    1  UNL1        0.0005
     31 C         138.9040  140.8870  163.6311 C.ar    1  UNL1       -0.0017
     32 C         138.1421  140.3061  164.7853 C.ar    1  UNL1        0.0100
     33 N         137.0226  137.8192  167.6683 N.1     1  UNL1       -0.1908
     34 C         137.7845  138.4001  166.5142 C.1     1  UNL1        0.1004
@<TRIPOS>BOND
     1    33    34    3
     2    34    27    1
     3    27    28   ar
     4    28    29   ar
     5    29    30   ar
     6    30    26    1
     7    26    21    1
     8    21    22   ar
     9    22    23   ar
    10    23    24   ar
    11    24    25   ar
    12    25    20    1
    13    20     1    1
    14     3     1    1
    15     3     4    1
    16     4     5    1
    17     5     6    1
    18     6     7   am
    19     7     8    2
    20     7    11    1
    21    11    12   ar
    22    12    13   ar
    23    13    14   ar
    24    14    15   ar
    25    15    16   ar
    26    16    17    1
    27     6     9   am
    28     9    10    2
    29    30    31   ar
    30    31    32   ar
    31    32    27   ar
    32    25    21   ar
    33     9     3    1
    34    16    11   ar
    35     1     2    1
    36    17    18    1
    37    17    19    1
