@<TRIPOS>MOLECULE
*****
 29 32 0 0 0
SMALL
GASTEIGER

@<TRIPOS>ATOM
      1 C         139.7640  140.2143  167.4099 C.ar    1  UNL1        0.1491
      2 N         139.3453  139.7245  168.7644 N.ar    1  UNL1       -0.1977
      3 C         140.1857  140.0354  169.9672 C.ar    1  UNL1        0.2149
      4 N         139.7669  139.5456  171.3218 N.pl3   1  UNL1       -0.3274
      5 N         141.4450  140.8362  169.8156 N.ar    1  UNL1       -0.2124
      6 C         141.8638  141.3260  168.4611 C.ar    1  UNL1        0.1041
      7 C         143.0449  142.1308  168.0058 C.ar    1  UNL1        0.0394
      8 C         142.9344  142.3171  166.5215 C.ar    1  UNL1        0.0779
      9 N         141.6850  141.6276  166.0595 N.ar    1  UNL1       -0.3169
     10 C         141.0233  141.0150  167.2582 C.ar    1  UNL1        0.1101
     11 H         138.9404  139.0200  171.4214 H       1  UNL1        0.1452
     12 H         140.3186  139.7497  172.1113 H       1  UNL1        0.1452
     13 N         138.9235  139.9033  166.2071 N.pl3   1  UNL1       -0.3119
     14 H         138.4295  140.6232  165.7523 H       1  UNL1        0.1486
     15 C         138.8357  138.4953  165.6971 C.3     1  UNL1        0.1383
     16 C         139.3736  138.2324  160.4509 C.3     1  UNL1        0.0754
     17 C         139.6044  138.0375  161.9203 C.ar    1  UNL1        0.1546
     18 C         138.7654  138.6038  163.0273 C.ar    1  UNL1        0.0553
     19 C         139.3571  138.1584  164.3316 C.ar    1  UNL1        0.1201
     20 N         140.5618  137.3169  164.0308 N.ar    1  UNL1       -0.0800
     21 O         140.7146  137.2422  162.5405 O.2     1  UNL1       -0.3580
     22 C         141.1850  141.5621  164.6468 C.3     1  UNL1        0.1528
     23 C         140.0938  142.4863  164.1937 C.ar    1  UNL1        0.0923
     24 N         138.6790  141.9945  164.1155 N.ar    1  UNL1       -0.2454
     25 C         137.5877  142.9186  163.6624 C.ar    1  UNL1        0.0986
     26 C         137.9115  144.3345  163.2877 C.ar    1  UNL1        0.0215
     27 C         139.3265  144.8263  163.3660 C.ar    1  UNL1        0.0142
     28 C         140.4176  143.9021  163.8190 C.ar    1  UNL1        0.0731
     29 CL        141.8325  144.3938  163.8973 Cl      1  UNL1       -0.0809
@<TRIPOS>BOND
     1    16    17    1
     2    17    18   ar
     3    18    19   ar
     4    19    15    1
     5    15    13    1
     6    13     1    1
     7     1     2   ar
     8     2     3   ar
     9     3     4    1
    10     3     5   ar
    11     5     6   ar
    12     6     7   ar
    13     7     8   ar
    14     8     9   ar
    15     9    22    1
    16    22    23    1
    17    23    24   ar
    18    24    25   ar
    19    25    26   ar
    20    26    27   ar
    21    27    28   ar
    22    28    29    1
    23     9    10   ar
    24    19    20   ar
    25    20    21   ar
    26    21    17   ar
    27    10     1   ar
    28    10     6   ar
    29    28    23   ar
    30    13    14    1
    31     4    11    1
    32     4    12    1
@<TRIPOS>MOLECULE
*****
 29 32 0 0 0
SMALL
GASTEIGER

@<TRIPOS>ATOM
      1 C         140.6033  144.0251  163.9257 C.ar    1  UNL1        0.1491
      2 N         140.4678  145.2409  163.0577 N.ar    1  UNL1       -0.1977
      3 C         139.2547  145.4133  162.1926 C.ar    1  UNL1        0.2149
      4 N         139.1192  146.6292  161.3245 N.pl3   1  UNL1       -0.3274
      5 N         138.1769  144.3700  162.1954 N.ar    1  UNL1       -0.2124
      6 C         138.3124  143.1542  163.0634 C.ar    1  UNL1        0.1041
      7 C         137.4201  141.9670  163.2743 C.ar    1  UNL1        0.0394
      8 C         138.0818  141.0609  164.2697 C.ar    1  UNL1        0.0779
      9 N         139.3831  141.6879  164.6741 N.ar    1  UNL1       -0.3169
     10 C         139.5256  142.9817  163.9286 C.ar    1  UNL1        0.1101
     11 H         139.8265  147.3140  161.3226 H       1  UNL1        0.1452
     12 H         138.3229  146.7424  160.7567 H       1  UNL1        0.1452
     13 N         141.8165  143.8526  164.7908 N.pl3   1  UNL1       -0.3119
     14 H         141.7133  143.6466  165.7479 H       1  UNL1        0.1486
     15 C         143.1869  143.9939  164.1975 C.3     1  UNL1        0.1383
     16 C         145.2376  139.1373  164.4957 C.3     1  UNL1        0.0754
     17 C         144.9527  140.5406  164.0488 C.ar    1  UNL1        0.1546
     18 C         143.9695  141.4834  164.6770 C.ar    1  UNL1        0.0553
     19 C         144.0100  142.7729  163.9118 C.ar    1  UNL1        0.1201
     20 N         145.0182  142.6271  162.8108 N.ar    1  UNL1       -0.0800
     21 O         145.6007  141.2474  162.8955 O.2     1  UNL1       -0.3580
     22 C         140.3688  141.1208  165.6522 C.3     1  UNL1        0.1528
     23 C         140.2343  141.4258  167.1148 C.ar    1  UNL1        0.0923
     24 N         140.8413  142.6759  167.6790 N.ar    1  UNL1       -0.2454
     25 C         140.7068  142.9810  169.1415 C.ar    1  UNL1        0.0986
     26 C         139.9653  142.0356  170.0397 C.ar    1  UNL1        0.0215
     27 C         139.3583  140.7854  169.4753 C.ar    1  UNL1        0.0142
     28 C         139.4928  140.4805  168.0129 C.ar    1  UNL1        0.0731
     29 CL        138.8858  139.2303  167.4485 Cl      1  UNL1       -0.0809
@<TRIPOS>BOND
     1    16    17    1
     2    17    18   ar
     3    18    19   ar
     4    19    15    1
     5    15    13    1
     6    13     1    1
     7     1     2   ar
     8     2     3   ar
     9     3     4    1
    10     3     5   ar
    11     5     6   ar
    12     6     7   ar
    13     7     8   ar
    14     8     9   ar
    15     9    22    1
    16    22    23    1
    17    23    24   ar
    18    24    25   ar
    19    25    26   ar
    20    26    27   ar
    21    27    28   ar
    22    28    29    1
    23     9    10   ar
    24    19    20   ar
    25    20    21   ar
    26    21    17   ar
    27    10     1   ar
    28    10     6   ar
    29    28    23   ar
    30    13    14    1
    31     4    11    1
    32     4    12    1
@<TRIPOS>MOLECULE
*****
 29 32 0 0 0
SMALL
GASTEIGER

@<TRIPOS>ATOM
      1 C         139.1455  140.1210  165.3929 C.ar    1  UNL1        0.1491
      2 N         138.1482  139.0570  165.7438 N.ar    1  UNL1       -0.1977
      3 C         137.9169  138.6900  167.1796 C.ar    1  UNL1        0.2149
      4 N         136.9195  137.6259  167.5306 N.pl3   1  UNL1       -0.3274
      5 N         138.6830  139.3871  168.2647 N.ar    1  UNL1       -0.2124
      6 C         139.6803  140.4511  167.9138 C.ar    1  UNL1        0.1041
      7 C         140.5771  141.3047  168.7606 C.ar    1  UNL1        0.0394
      8 C         141.3626  142.1992  167.8481 C.ar    1  UNL1        0.0779
      9 N         140.9513  141.8984  166.4372 N.ar    1  UNL1       -0.3169
     10 C         139.9116  140.8180  166.4779 C.ar    1  UNL1        0.1101
     11 H         136.4167  137.1684  166.8184 H       1  UNL1        0.1452
     12 H         136.7677  137.3851  168.4730 H       1  UNL1        0.1452
     13 N         139.3768  140.4879  163.9570 N.pl3   1  UNL1       -0.3119
     14 H         140.2253  140.2492  163.5184 H       1  UNL1        0.1486
     15 C         138.3153  141.2185  163.1892 C.3     1  UNL1        0.1383
     16 C         140.4931  145.4811  160.9602 C.3     1  UNL1        0.0754
     17 C         139.5528  144.5893  161.7157 C.ar    1  UNL1        0.1546
     18 C         139.7216  143.1153  161.9365 C.ar    1  UNL1        0.0553
     19 C         138.5518  142.6301  162.7402 C.ar    1  UNL1        0.1201
     20 N         137.6600  143.8041  163.0161 N.ar    1  UNL1       -0.0800
     21 O         138.2787  145.0150  162.3828 O.2     1  UNL1       -0.3580
     22 C         141.4859  142.5617  165.2026 C.3     1  UNL1        0.1528
     23 C         142.6349  141.9476  164.4590 C.ar    1  UNL1        0.0923
     24 N         142.3788  140.9051  163.4115 N.ar    1  UNL1       -0.2454
     25 C         143.5277  140.2910  162.6679 C.ar    1  UNL1        0.0986
     26 C         144.9327  140.7196  162.9719 C.ar    1  UNL1        0.0215
     27 C         145.1887  141.7622  164.0195 C.ar    1  UNL1        0.0142
     28 C         144.0398  142.3762  164.7630 C.ar    1  UNL1        0.0731
     29 CL        144.2958  143.4188  165.8106 Cl      1  UNL1       -0.0809
@<TRIPOS>BOND
     1    16    17    1
     2    17    18   ar
     3    18    19   ar
     4    19    15    1
     5    15    13    1
     6    13     1    1
     7     1     2   ar
     8     2     3   ar
     9     3     4    1
    10     3     5   ar
    11     5     6   ar
    12     6     7   ar
    13     7     8   ar
    14     8     9   ar
    15     9    22    1
    16    22    23    1
    17    23    24   ar
    18    24    25   ar
    19    25    26   ar
    20    26    27   ar
    21    27    28   ar
    22    28    29    1
    23     9    10   ar
    24    19    20   ar
    25    20    21   ar
    26    21    17   ar
    27    10     1   ar
    28    10     6   ar
    29    28    23   ar
    30    13    14    1
    31     4    11    1
    32     4    12    1
@<TRIPOS>MOLECULE
*****
 29 32 0 0 0
SMALL
GASTEIGER

@<TRIPOS>ATOM
      1 C         142.3344  140.0796  167.4860 C.ar    1  UNL1        0.1491
      2 N         142.8724  138.9378  168.2964 N.ar    1  UNL1       -0.1977
      3 C         142.6714  138.9127  169.7826 C.ar    1  UNL1        0.2149
      4 N         143.2094  137.7707  170.5930 N.pl3   1  UNL1       -0.3274
      5 N         141.9325  140.0295  170.4586 N.ar    1  UNL1       -0.2124
      6 C         141.3946  141.1714  169.6482 C.ar    1  UNL1        0.1041
      7 C         140.6315  142.4038  170.0337 C.ar    1  UNL1        0.0394
      8 C         140.3608  143.1906  168.7856 C.ar    1  UNL1        0.0779
      9 N         140.9566  142.4444  167.6288 N.ar    1  UNL1       -0.3169
     10 C         141.5956  141.1964  168.1619 C.ar    1  UNL1        0.1101
     11 H         143.6943  137.0377  170.1494 H       1  UNL1        0.1452
     12 H         143.0775  137.7542  171.5685 H       1  UNL1        0.1452
     13 N         142.5354  140.1047  165.9998 N.pl3   1  UNL1       -0.3119
     14 H         142.2228  140.8760  165.4737 H       1  UNL1        0.1486
     15 C         143.2126  138.9547  165.3150 C.3     1  UNL1        0.1383
     16 C         142.5895  137.7985  160.2007 C.3     1  UNL1        0.0754
     17 C         142.3683  137.8801  161.6821 C.ar    1  UNL1        0.1546
     18 C         143.2523  138.5848  162.6680 C.ar    1  UNL1        0.0553
     19 C         142.6548  138.4116  164.0328 C.ar    1  UNL1        0.1201
     20 N         141.4015  137.5999  163.8905 N.ar    1  UNL1       -0.0800
     21 O         141.2245  137.2714  162.4376 O.2     1  UNL1       -0.3580
     22 C         140.9199  142.8713  166.1913 C.3     1  UNL1        0.1528
     23 C         139.8170  142.3923  165.2946 C.ar    1  UNL1        0.0923
     24 N         139.7721  140.9568  164.8621 N.ar    1  UNL1       -0.2454
     25 C         138.6692  140.4777  163.9654 C.ar    1  UNL1        0.0986
     26 C         137.6112  141.4343  163.5012 C.ar    1  UNL1        0.0215
     27 C         137.6561  142.8699  163.9337 C.ar    1  UNL1        0.0142
     28 C         138.7589  143.3489  164.8304 C.ar    1  UNL1        0.0731
     29 CL        138.8038  144.7845  165.2629 Cl      1  UNL1       -0.0809
@<TRIPOS>BOND
     1    16    17    1
     2    17    18   ar
     3    18    19   ar
     4    19    15    1
     5    15    13    1
     6    13     1    1
     7     1     2   ar
     8     2     3   ar
     9     3     4    1
    10     3     5   ar
    11     5     6   ar
    12     6     7   ar
    13     7     8   ar
    14     8     9   ar
    15     9    22    1
    16    22    23    1
    17    23    24   ar
    18    24    25   ar
    19    25    26   ar
    20    26    27   ar
    21    27    28   ar
    22    28    29    1
    23     9    10   ar
    24    19    20   ar
    25    20    21   ar
    26    21    17   ar
    27    10     1   ar
    28    10     6   ar
    29    28    23   ar
    30    13    14    1
    31     4    11    1
    32     4    12    1
@<TRIPOS>MOLECULE
*****
 29 32 0 0 0
SMALL
GASTEIGER

@<TRIPOS>ATOM
      1 C         140.0098  140.3162  167.6371 C.ar    1  UNL1        0.1491
      2 N         138.8416  139.8043  168.4265 N.ar    1  UNL1       -0.1977
      3 C         138.7646  140.0588  169.9026 C.ar    1  UNL1        0.2149
      4 N         137.5963  139.5468  170.6921 N.pl3   1  UNL1       -0.3274
      5 N         139.8558  140.8253  170.5896 N.ar    1  UNL1       -0.2124
      6 C         141.0240  141.3372  169.8002 C.ar    1  UNL1        0.1041
      7 C         142.2408  142.1178  170.2001 C.ar    1  UNL1        0.0394
      8 C         143.0699  142.3458  168.9710 C.ar    1  UNL1        0.0779
      9 N         142.3655  141.7060  167.8115 N.ar    1  UNL1       -0.3169
     10 C         141.1010  141.0827  168.3239 C.ar    1  UNL1        0.1101
     11 H         136.8801  139.0437  170.2413 H       1  UNL1        0.1452
     12 H         137.5457  139.7139  171.6610 H       1  UNL1        0.1452
     13 N         140.0869  140.0616  166.1608 N.pl3   1  UNL1       -0.3119
     14 H         140.2369  140.8103  165.5394 H       1  UNL1        0.1486
     15 C         139.9353  138.6664  165.6314 C.3     1  UNL1        0.1383
     16 C         143.5828  138.0486  161.8638 C.3     1  UNL1        0.0754
     17 C         142.2892  137.9878  162.6208 C.ar    1  UNL1        0.1546
     18 C         142.0370  138.5629  163.9830 C.ar    1  UNL1        0.0553
     19 C         140.6127  138.2718  164.3526 C.ar    1  UNL1        0.1201
     20 N         139.9846  137.5169  163.2187 N.ar    1  UNL1       -0.0800
     21 O         141.0208  137.3414  162.1484 O.2     1  UNL1       -0.3580
     22 C         142.8419  141.6920  166.3892 C.3     1  UNL1        0.1528
     23 C         142.4607  142.8058  165.4595 C.ar    1  UNL1        0.0923
     24 N         141.0150  143.1469  165.2511 N.ar    1  UNL1       -0.2454
     25 C         140.6337  144.2606  164.3215 C.ar    1  UNL1        0.0986
     26 C         141.6982  145.0332  163.6003 C.ar    1  UNL1        0.0215
     27 C         143.1439  144.6920  163.8088 C.ar    1  UNL1        0.0142
     28 C         143.5251  143.5783  164.7384 C.ar    1  UNL1        0.0731
     29 CL        144.9708  143.2371  164.9469 Cl      1  UNL1       -0.0809
@<TRIPOS>BOND
     1    16    17    1
     2    17    18   ar
     3    18    19   ar
     4    19    15    1
     5    15    13    1
     6    13     1    1
     7     1     2   ar
     8     2     3   ar
     9     3     4    1
    10     3     5   ar
    11     5     6   ar
    12     6     7   ar
    13     7     8   ar
    14     8     9   ar
    15     9    22    1
    16    22    23    1
    17    23    24   ar
    18    24    25   ar
    19    25    26   ar
    20    26    27   ar
    21    27    28   ar
    22    28    29    1
    23     9    10   ar
    24    19    20   ar
    25    20    21   ar
    26    21    17   ar
    27    10     1   ar
    28    10     6   ar
    29    28    23   ar
    30    13    14    1
    31     4    11    1
    32     4    12    1
@<TRIPOS>MOLECULE
*****
 29 32 0 0 0
SMALL
GASTEIGER

@<TRIPOS>ATOM
      1 C         140.3230  138.6115  163.2107 C.ar    1  UNL1        0.1491
      2 N         140.7866  138.1051  161.8771 N.ar    1  UNL1       -0.1977
      3 C         142.2454  137.8521  161.6367 C.ar    1  UNL1        0.2149
      4 N         142.7090  137.3457  160.3029 N.pl3   1  UNL1       -0.3274
      5 N         143.2407  138.1056  162.7299 N.ar    1  UNL1       -0.2124
      6 C         142.7771  138.6120  164.0636 C.ar    1  UNL1        0.1041
      7 C         143.5199  138.9510  165.3219 C.ar    1  UNL1        0.0394
      8 C         142.5201  139.4136  166.3399 C.ar    1  UNL1        0.0779
      9 N         141.1594  139.3604  165.7108 N.ar    1  UNL1       -0.3169
     10 C         141.3183  138.8650  164.3039 C.ar    1  UNL1        0.1101
     11 H         142.0558  137.1793  159.5854 H       1  UNL1        0.1452
     12 H         143.6665  137.1797  160.1452 H       1  UNL1        0.1452
     13 N         138.8642  138.8645  163.4511 N.pl3   1  UNL1       -0.3119
     14 H         138.4202  138.4745  164.2385 H       1  UNL1        0.1486
     15 C         138.0818  139.7116  162.4918 C.3     1  UNL1        0.1383
     16 C         137.9593  144.4416  164.8357 C.3     1  UNL1        0.0754
     17 C         137.9163  143.3651  163.7919 C.ar    1  UNL1        0.1546
     18 C         138.0892  141.8949  164.0340 C.ar    1  UNL1        0.0553
     19 C         137.9726  141.1910  162.7146 C.ar    1  UNL1        0.1201
     20 N         137.7277  142.2262  161.6571 N.ar    1  UNL1       -0.0800
     21 O         137.6929  143.5698  162.3229 O.2     1  UNL1       -0.3580
     22 C         139.8669  139.7365  166.3725 C.3     1  UNL1        0.1528
     23 C         139.8795  140.5035  167.6615 C.ar    1  UNL1        0.0923
     24 N         139.4570  139.8350  168.9361 N.ar    1  UNL1       -0.2454
     25 C         139.4696  140.6019  170.2252 C.ar    1  UNL1        0.0986
     26 C         139.9049  142.0373  170.2396 C.ar    1  UNL1        0.0215
     27 C         140.3274  142.7058  168.9650 C.ar    1  UNL1        0.0142
     28 C         140.3147  141.9389  167.6760 C.ar    1  UNL1        0.0731
     29 CL        140.7373  142.6073  166.4014 Cl      1  UNL1       -0.0809
@<TRIPOS>BOND
     1    16    17    1
     2    17    18   ar
     3    18    19   ar
     4    19    15    1
     5    15    13    1
     6    13     1    1
     7     1     2   ar
     8     2     3   ar
     9     3     4    1
    10     3     5   ar
    11     5     6   ar
    12     6     7   ar
    13     7     8   ar
    14     8     9   ar
    15     9    22    1
    16    22    23    1
    17    23    24   ar
    18    24    25   ar
    19    25    26   ar
    20    26    27   ar
    21    27    28   ar
    22    28    29    1
    23     9    10   ar
    24    19    20   ar
    25    20    21   ar
    26    21    17   ar
    27    10     1   ar
    28    10     6   ar
    29    28    23   ar
    30    13    14    1
    31     4    11    1
    32     4    12    1
@<TRIPOS>MOLECULE
*****
 29 32 0 0 0
SMALL
GASTEIGER

@<TRIPOS>ATOM
      1 C         138.9208  143.4564  163.4994 C.ar    1  UNL1        0.1491
      2 N         138.5133  144.5221  162.5257 N.ar    1  UNL1       -0.1977
      3 C         139.5030  145.5643  162.0969 C.ar    1  UNL1        0.2149
      4 N         139.0955  146.6301  161.1230 N.pl3   1  UNL1       -0.3274
      5 N         140.9004  145.5409  162.6417 N.ar    1  UNL1       -0.2124
      6 C         141.3079  144.4752  163.6155 C.ar    1  UNL1        0.1041
      7 C         142.6048  144.1993  164.3168 C.ar    1  UNL1        0.0394
      8 C         142.4165  142.9864  165.1791 C.ar    1  UNL1        0.0779
      9 N         141.0033  142.5128  165.0107 N.ar    1  UNL1       -0.3169
     10 C         140.3181  143.4329  164.0443 C.ar    1  UNL1        0.1101
     11 H         138.1784  146.6454  160.7654 H       1  UNL1        0.1452
     12 H         139.7452  147.3141  160.8416 H       1  UNL1        0.1452
     13 N         137.9309  142.4141  163.9283 N.pl3   1  UNL1       -0.3119
     14 H         137.6984  142.3181  164.8801 H       1  UNL1        0.1486
     15 C         137.2953  141.5181  162.9069 C.3     1  UNL1        0.1383
     16 C         141.1935  138.9137  160.4773 C.3     1  UNL1        0.0754
     17 C         139.8892  139.2279  161.1485 C.ar    1  UNL1        0.1546
     18 C         139.4708  140.5672  161.6789 C.ar    1  UNL1        0.0553
     19 C         138.0976  140.4251  162.2652 C.ar    1  UNL1        0.1201
     20 N         137.6672  138.9980  162.0972 N.ar    1  UNL1       -0.0800
     21 O         138.7746  138.2582  161.4070 O.2     1  UNL1       -0.3580
     22 C         140.3839  141.3272  165.6896 C.3     1  UNL1        0.1528
     23 C         140.6156  139.9475  165.1485 C.ar    1  UNL1        0.0923
     24 N         141.9295  139.6021  164.5128 N.ar    1  UNL1       -0.2454
     25 C         142.1612  138.2224  163.9718 C.ar    1  UNL1        0.0986
     26 C         141.0789  137.1881  164.0665 C.ar    1  UNL1        0.0215
     27 C         139.7650  137.5336  164.7023 C.ar    1  UNL1        0.0142
     28 C         139.5333  138.9132  165.2433 C.ar    1  UNL1        0.0731
     29 CL        138.2194  139.2587  165.8791 Cl      1  UNL1       -0.0809
@<TRIPOS>BOND
     1    16    17    1
     2    17    18   ar
     3    18    19   ar
     4    19    15    1
     5    15    13    1
     6    13     1    1
     7     1     2   ar
     8     2     3   ar
     9     3     4    1
    10     3     5   ar
    11     5     6   ar
    12     6     7   ar
    13     7     8   ar
    14     8     9   ar
    15     9    22    1
    16    22    23    1
    17    23    24   ar
    18    24    25   ar
    19    25    26   ar
    20    26    27   ar
    21    27    28   ar
    22    28    29    1
    23     9    10   ar
    24    19    20   ar
    25    20    21   ar
    26    21    17   ar
    27    10     1   ar
    28    10     6   ar
    29    28    23   ar
    30    13    14    1
    31     4    11    1
    32     4    12    1
@<TRIPOS>MOLECULE
*****
 29 32 0 0 0
SMALL
GASTEIGER

@<TRIPOS>ATOM
      1 C         140.2660  144.4141  164.1471 C.ar    1  UNL1        0.1491
      2 N         140.4349  145.0137  162.7825 N.ar    1  UNL1       -0.1977
      3 C         141.6650  144.7137  161.9785 C.ar    1  UNL1        0.2149
      4 N         141.8338  145.3133  160.6139 N.pl3   1  UNL1       -0.3274
      5 N         142.7265  143.8141  162.5390 N.ar    1  UNL1       -0.2124
      6 C         142.5577  143.2146  163.9035 C.ar    1  UNL1        0.1041
      7 C         143.4280  142.2987  164.7121 C.ar    1  UNL1        0.0394
      8 C         142.7356  142.0327  166.0158 C.ar    1  UNL1        0.0779
      9 N         141.4374  142.7841  166.0131 N.ar    1  UNL1       -0.3169
     10 C         141.3274  143.5146  164.7076 C.ar    1  UNL1        0.1101
     11 H         141.1372  145.9037  160.2460 H       1  UNL1        0.1452
     12 H         142.6413  145.1164  160.0861 H       1  UNL1        0.1452
     13 N         139.0358  144.7142  164.9511 N.pl3   1  UNL1       -0.3119
     14 H         139.0581  145.4151  165.6420 H       1  UNL1        0.1486
     15 C         137.7715  143.9461  164.7025 C.3     1  UNL1        0.1383
     16 C         138.4441  138.8798  163.3754 C.3     1  UNL1        0.0754
     17 C         138.1205  140.3428  163.3028 C.ar    1  UNL1        0.1546
     18 C         138.2357  141.3281  164.4279 C.ar    1  UNL1        0.0553
     19 C         137.8114  142.6714  163.9128 C.ar    1  UNL1        0.1201
     20 N         137.4340  142.5163  162.4694 N.ar    1  UNL1       -0.0800
     21 O         137.6250  141.0771  162.0924 O.2     1  UNL1       -0.3580
     22 C         140.4267  142.8020  167.1213 C.3     1  UNL1        0.1528
     23 C         140.7375  142.1393  168.4306 C.ar    1  UNL1        0.0923
     24 N         141.5623  142.8572  169.4573 N.ar    1  UNL1       -0.2454
     25 C         141.8731  142.1947  170.7666 C.ar    1  UNL1        0.0986
     26 C         141.3590  140.8141  171.0492 C.ar    1  UNL1        0.0215
     27 C         140.5341  140.0962  170.0224 C.ar    1  UNL1        0.0142
     28 C         140.2234  140.7588  168.7132 C.ar    1  UNL1        0.0731
     29 CL        139.3985  140.0409  167.6864 Cl      1  UNL1       -0.0809
@<TRIPOS>BOND
     1    16    17    1
     2    17    18   ar
     3    18    19   ar
     4    19    15    1
     5    15    13    1
     6    13     1    1
     7     1     2   ar
     8     2     3   ar
     9     3     4    1
    10     3     5   ar
    11     5     6   ar
    12     6     7   ar
    13     7     8   ar
    14     8     9   ar
    15     9    22    1
    16    22    23    1
    17    23    24   ar
    18    24    25   ar
    19    25    26   ar
    20    26    27   ar
    21    27    28   ar
    22    28    29    1
    23     9    10   ar
    24    19    20   ar
    25    20    21   ar
    26    21    17   ar
    27    10     1   ar
    28    10     6   ar
    29    28    23   ar
    30    13    14    1
    31     4    11    1
    32     4    12    1
@<TRIPOS>MOLECULE
*****
 29 32 0 0 0
SMALL
GASTEIGER

@<TRIPOS>ATOM
      1 C         137.9057  141.1344  163.7102 C.ar    1  UNL1        0.1491
      2 N         137.2486  140.9844  162.3701 N.ar    1  UNL1       -0.1977
      3 C         137.4965  139.7556  161.5466 C.ar    1  UNL1        0.2149
      4 N         136.8393  139.6056  160.2065 N.pl3   1  UNL1       -0.3274
      5 N         138.4015  138.6765  162.0631 N.ar    1  UNL1       -0.2124
      6 C         139.0586  138.8265  163.4031 C.ar    1  UNL1        0.1041
      7 C         139.9929  137.9366  164.1680 C.ar    1  UNL1        0.0394
      8 C         140.3225  138.6156  165.4643 C.ar    1  UNL1        0.0779
      9 N         139.5918  139.9251  165.5006 N.ar    1  UNL1       -0.3169
     10 C         138.8107  140.0555  164.2267 C.ar    1  UNL1        0.1101
     11 H         136.2454  140.3138  159.8675 H       1  UNL1        0.1452
     12 H         137.0020  138.7990  159.6660 H       1  UNL1        0.1452
     13 N         137.6578  142.3634  164.5337 N.pl3   1  UNL1       -0.3119
     14 H         137.5255  142.2858  165.5062 H       1  UNL1        0.1486
     15 C         137.6113  143.7105  163.8756 C.3     1  UNL1        0.1383
     16 C         142.6553  145.2689  163.7721 C.3     1  UNL1        0.0754
     17 C         141.2036  145.1108  163.4288 C.ar    1  UNL1        0.1546
     18 C         140.2134  144.2525  164.1587 C.ar    1  UNL1        0.0553
     19 C         138.8853  144.3945  163.4764 C.ar    1  UNL1        0.1201
     20 N         139.0545  145.3405  162.3248 N.ar    1  UNL1       -0.0800
     21 O         140.4874  145.7832  162.2954 O.2     1  UNL1       -0.3580
     22 C         139.6348  140.9281  166.6151 C.3     1  UNL1        0.1528
     23 C         140.5687  140.7252  167.7712 C.ar    1  UNL1        0.0923
     24 N         140.1502  139.8735  168.9328 N.ar    1  UNL1       -0.2454
     25 C         141.0841  139.6705  170.0889 C.ar    1  UNL1        0.0986
     26 C         142.4365  140.3193  170.0833 C.ar    1  UNL1        0.0215
     27 C         142.8550  141.1710  168.9217 C.ar    1  UNL1        0.0142
     28 C         141.9211  141.3739  167.7656 C.ar    1  UNL1        0.0731
     29 CL        142.3396  142.2256  166.6040 Cl      1  UNL1       -0.0809
@<TRIPOS>BOND
     1    16    17    1
     2    17    18   ar
     3    18    19   ar
     4    19    15    1
     5    15    13    1
     6    13     1    1
     7     1     2   ar
     8     2     3   ar
     9     3     4    1
    10     3     5   ar
    11     5     6   ar
    12     6     7   ar
    13     7     8   ar
    14     8     9   ar
    15     9    22    1
    16    22    23    1
    17    23    24   ar
    18    24    25   ar
    19    25    26   ar
    20    26    27   ar
    21    27    28   ar
    22    28    29    1
    23     9    10   ar
    24    19    20   ar
    25    20    21   ar
    26    21    17   ar
    27    10     1   ar
    28    10     6   ar
    29    28    23   ar
    30    13    14    1
    31     4    11    1
    32     4    12    1
