@<TRIPOS>MOLECULE
*****
 25 27 0 0 0
SMALL
GASTEIGER

@<TRIPOS>ATOM
      1 N         137.3720  144.5687  162.4844 N.pl3   1  UNL1       -0.3288
      2 C         138.7862  144.4449  162.9691 C.ar    1  UNL1        0.1948
      3 N         139.9585  145.2436  162.4816 N.ar    1  UNL1       -0.2139
      4 C         141.1731  144.7930  163.2376 C.ar    1  UNL1        0.1000
      5 C         142.6085  145.2244  163.1799 C.ar    1  UNL1        0.0215
      6 C         143.6224  144.5786  164.0771 C.ar    1  UNL1        0.0130
      7 C         143.2008  143.5013  165.0319 C.ar    1  UNL1        0.0592
      8 CL        144.2147  142.8554  165.9291 Cl      1  UNL1       -0.0822
      9 C         141.7654  143.0699  165.0896 C.ar    1  UNL1        0.0302
     10 C         140.7515  143.7157  164.1924 C.ar    1  UNL1        0.0808
     11 N         139.2763  143.5006  164.0265 N.ar    1  UNL1       -0.2971
     12 H         137.1476  145.2216  161.7827 H       1  UNL1        0.1451
     13 H         136.6683  143.9970  162.8681 H       1  UNL1        0.1451
     14 C         138.4384  142.5143  164.7849 C.3     1  UNL1        0.1424
     15 C         137.8827  141.3087  164.0865 C.3     1  UNL1        0.1561
     16 O         136.6796  141.4432  163.2007 O.3     1  UNL1       -0.3780
     17 H         136.4526  140.5762  162.8299 H       1  UNL1        0.2109
     18 C         138.5300  139.9686  164.2739 C.ar    1  UNL1        0.0176
     19 C         138.1677  139.1194  165.4561 C.ar    1  UNL1       -0.0010
     20 C         138.8150  137.7793  165.6434 C.ar    1  UNL1        0.0007
     21 C         139.8245  137.2883  164.6485 C.ar    1  UNL1        0.0122
     22 C         140.1867  138.1375  163.4663 C.ar    1  UNL1        0.0680
     23 CL        141.1962  137.6466  162.4714 Cl      1  UNL1       -0.0814
     24 C         139.5395  139.4776  163.2790 C.ar    1  UNL1        0.0665
     25 CL        139.9017  140.3268  162.0967 Cl      1  UNL1       -0.0816
@<TRIPOS>BOND
     1     1     2    1
     2     2     3   ar
     3     3     4   ar
     4     4     5   ar
     5     5     6   ar
     6     6     7   ar
     7     7     8    1
     8     7     9   ar
     9     9    10   ar
    10    10    11   ar
    11    11    14    1
    12    14    15    1
    13    15    16    1
    14    15    18    1
    15    18    19   ar
    16    19    20   ar
    17    20    21   ar
    18    21    22   ar
    19    22    23    1
    20    22    24   ar
    21    24    25    1
    22    11     2   ar
    23    24    18   ar
    24    10     4   ar
    25     1    12    1
    26     1    13    1
    27    16    17    1
@<TRIPOS>MOLECULE
*****
 25 27 0 0 0
SMALL
GASTEIGER

@<TRIPOS>ATOM
      1 N         138.3509  137.3455  162.3785 N.pl3   1  UNL1       -0.3288
      2 C         139.6750  138.0497  162.4072 C.ar    1  UNL1        0.1948
      3 N         141.0210  137.3934  162.4928 N.ar    1  UNL1       -0.2139
      4 C         142.0635  138.4720  162.4939 C.ar    1  UNL1        0.1000
      5 C         143.5610  138.4204  162.5613 C.ar    1  UNL1        0.0215
      6 C         144.3568  139.6918  162.5436 C.ar    1  UNL1        0.0130
      7 C         143.6549  141.0148  162.4586 C.ar    1  UNL1        0.0592
      8 CL        144.4508  142.2862  162.4409 Cl      1  UNL1       -0.0822
      9 C         142.1574  141.0663  162.3912 C.ar    1  UNL1        0.0302
     10 C         141.3616  139.7950  162.4088 C.ar    1  UNL1        0.0808
     11 N         139.8855  139.5340  162.3553 N.ar    1  UNL1       -0.2971
     12 H         138.3153  136.3624  162.4174 H       1  UNL1        0.1451
     13 H         137.5174  137.8663  162.3207 H       1  UNL1        0.1451
     14 C         138.8089  140.5746  162.2655 C.3     1  UNL1        0.1424
     15 C         137.9604  140.8813  163.4638 C.3     1  UNL1        0.1561
     16 O         136.5631  141.3955  163.2816 O.3     1  UNL1       -0.3780
     17 H         136.1564  141.5413  164.1501 H       1  UNL1        0.2109
     18 C         138.5092  140.6739  164.8443 C.ar    1  UNL1        0.0176
     19 C         138.1533  139.4371  165.6149 C.ar    1  UNL1       -0.0010
     20 C         138.7021  139.2297  166.9954 C.ar    1  UNL1        0.0007
     21 C         139.6067  140.2590  167.6054 C.ar    1  UNL1        0.0122
     22 C         139.9626  141.4958  166.8348 C.ar    1  UNL1        0.0680
     23 CL        140.8672  142.5252  167.4447 Cl      1  UNL1       -0.0814
     24 C         139.4138  141.7032  165.4543 C.ar    1  UNL1        0.0665
     25 CL        139.7697  142.9400  164.6837 Cl      1  UNL1       -0.0816
@<TRIPOS>BOND
     1     1     2    1
     2     2     3   ar
     3     3     4   ar
     4     4     5   ar
     5     5     6   ar
     6     6     7   ar
     7     7     8    1
     8     7     9   ar
     9     9    10   ar
    10    10    11   ar
    11    11    14    1
    12    14    15    1
    13    15    16    1
    14    15    18    1
    15    18    19   ar
    16    19    20   ar
    17    20    21   ar
    18    21    22   ar
    19    22    23    1
    20    22    24   ar
    21    24    25    1
    22    11     2   ar
    23    24    18   ar
    24    10     4   ar
    25     1    12    1
    26     1    13    1
    27    16    17    1
@<TRIPOS>MOLECULE
*****
 25 27 0 0 0
SMALL
GASTEIGER

@<TRIPOS>ATOM
      1 N         141.1008  137.2199  164.6063 N.pl3   1  UNL1       -0.3288
      2 C         140.4447  138.5688  164.6007 C.ar    1  UNL1        0.1948
      3 N         139.1284  138.9065  163.9657 N.ar    1  UNL1       -0.2139
      4 C         138.8599  140.3633  164.2017 C.ar    1  UNL1        0.1000
      5 C         137.7165  141.2500  163.8064 C.ar    1  UNL1        0.0215
      6 C         137.7236  142.6996  164.1921 C.ar    1  UNL1        0.0130
      7 C         138.8740  143.2623  164.9729 C.ar    1  UNL1        0.0592
      8 CL        138.8811  144.7119  165.3585 Cl      1  UNL1       -0.0822
      9 C         140.0174  142.3755  165.3682 C.ar    1  UNL1        0.0302
     10 C         140.0103  140.9260  164.9826 C.ar    1  UNL1        0.0808
     11 N         140.9898  139.8170  165.2292 N.ar    1  UNL1       -0.2971
     12 H         140.6622  136.4574  164.1642 H       1  UNL1        0.1451
     13 H         141.9700  137.0972  165.0519 H       1  UNL1        0.1451
     14 C         142.2867  139.9354  165.9735 C.3     1  UNL1        0.1424
     15 C         142.3265  139.6957  167.4536 C.3     1  UNL1        0.1561
     16 O         143.2652  138.6735  168.0229 O.3     1  UNL1       -0.3780
     17 H         143.1652  138.6442  168.9873 H       1  UNL1        0.2109
     18 C         141.4277  140.4781  168.3647 C.ar    1  UNL1        0.0176
     19 C         140.1208  139.8936  168.8121 C.ar    1  UNL1       -0.0010
     20 C         139.2220  140.6760  169.7232 C.ar    1  UNL1        0.0007
     21 C         139.6301  142.0429  170.1868 C.ar    1  UNL1        0.0122
     22 C         140.9371  142.6274  169.7393 C.ar    1  UNL1        0.0680
     23 CL        141.3453  143.9943  170.2029 Cl      1  UNL1       -0.0814
     24 C         141.8359  141.8450  168.8283 C.ar    1  UNL1        0.0665
     25 CL        143.1428  142.4295  168.3808 Cl      1  UNL1       -0.0816
@<TRIPOS>BOND
     1     1     2    1
     2     2     3   ar
     3     3     4   ar
     4     4     5   ar
     5     5     6   ar
     6     6     7   ar
     7     7     8    1
     8     7     9   ar
     9     9    10   ar
    10    10    11   ar
    11    11    14    1
    12    14    15    1
    13    15    16    1
    14    15    18    1
    15    18    19   ar
    16    19    20   ar
    17    20    21   ar
    18    21    22   ar
    19    22    23    1
    20    22    24   ar
    21    24    25    1
    22    11     2   ar
    23    24    18   ar
    24    10     4   ar
    25     1    12    1
    26     1    13    1
    27    16    17    1
@<TRIPOS>MOLECULE
*****
 25 27 0 0 0
SMALL
GASTEIGER

@<TRIPOS>ATOM
      1 N         138.7237  143.4418  160.8865 N.pl3   1  UNL1       -0.3288
      2 C         138.6772  142.2958  161.8533 C.ar    1  UNL1        0.1948
      3 N         139.0117  140.8668  161.5435 N.ar    1  UNL1       -0.2139
      4 C         138.8293  140.0655  162.7983 C.ar    1  UNL1        0.1000
      5 C         139.0127  138.6062  163.0929 C.ar    1  UNL1        0.0215
      6 C         138.7489  138.0807  164.4728 C.ar    1  UNL1        0.0130
      7 C         138.3017  139.0145  165.5582 C.ar    1  UNL1        0.0592
      8 CL        138.0380  138.4890  166.9382 Cl      1  UNL1       -0.0822
      9 C         138.1184  140.4738  165.2637 C.ar    1  UNL1        0.0302
     10 C         138.3822  140.9993  163.8837 C.ar    1  UNL1        0.0808
     11 N         138.2882  142.3777  163.2996 N.ar    1  UNL1       -0.2971
     12 H         138.9931  143.2871  159.9523 H       1  UNL1        0.1451
     13 H         138.4848  144.3486  161.1862 H       1  UNL1        0.1451
     14 C         137.8773  143.6199  164.0332 C.3     1  UNL1        0.1424
     15 C         138.8425  144.2977  164.9599 C.3     1  UNL1        0.1561
     16 O         138.3593  145.3650  165.8966 O.3     1  UNL1       -0.3780
     17 H         139.1048  145.6965  166.4213 H       1  UNL1        0.2109
     18 C         140.2911  143.9082  164.9500 C.ar    1  UNL1        0.0176
     19 C         140.8073  142.9143  165.9478 C.ar    1  UNL1       -0.0010
     20 C         142.2558  142.5249  165.9379 C.ar    1  UNL1        0.0007
     21 C         143.1881  143.1294  164.9302 C.ar    1  UNL1        0.0122
     22 C         142.6719  144.1233  163.9325 C.ar    1  UNL1        0.0680
     23 CL        143.6041  144.7278  162.9248 Cl      1  UNL1       -0.0814
     24 C         141.2234  144.5127  163.9423 C.ar    1  UNL1        0.0665
     25 CL        140.7071  145.5066  162.9446 Cl      1  UNL1       -0.0816
@<TRIPOS>BOND
     1     1     2    1
     2     2     3   ar
     3     3     4   ar
     4     4     5   ar
     5     5     6   ar
     6     6     7   ar
     7     7     8    1
     8     7     9   ar
     9     9    10   ar
    10    10    11   ar
    11    11    14    1
    12    14    15    1
    13    15    16    1
    14    15    18    1
    15    18    19   ar
    16    19    20   ar
    17    20    21   ar
    18    21    22   ar
    19    22    23    1
    20    22    24   ar
    21    24    25    1
    22    11     2   ar
    23    24    18   ar
    24    10     4   ar
    25     1    12    1
    26     1    13    1
    27    16    17    1
@<TRIPOS>MOLECULE
*****
 25 27 0 0 0
SMALL
GASTEIGER

@<TRIPOS>ATOM
      1 N         137.6095  144.2393  162.3794 N.pl3   1  UNL1       -0.3288
      2 C         139.0820  144.1368  162.6461 C.ar    1  UNL1        0.1948
      3 N         139.9386  145.1917  163.2812 N.ar    1  UNL1       -0.2139
      4 C         141.3425  144.6683  163.3521 C.ar    1  UNL1        0.1000
      5 C         142.6121  145.2688  163.8787 C.ar    1  UNL1        0.0215
      6 C         143.8929  144.4907  163.8139 C.ar    1  UNL1        0.0130
      7 C         143.9041  143.1123  163.2226 C.ar    1  UNL1        0.0592
      8 CL        145.1849  142.3343  163.1578 Cl      1  UNL1       -0.0822
      9 C         142.6344  142.5118  162.6960 C.ar    1  UNL1        0.0302
     10 C         141.3536  143.2898  162.7607 C.ar    1  UNL1        0.0808
     11 N         139.9566  142.9614  162.3244 N.ar    1  UNL1       -0.2971
     12 H         137.1199  145.0565  162.6281 H       1  UNL1        0.1451
     13 H         137.1325  143.4894  161.9558 H       1  UNL1        0.1451
     14 C         139.5121  141.6821  161.6796 C.3     1  UNL1        0.1424
     15 C         138.3409  140.9286  162.2368 C.3     1  UNL1        0.1561
     16 O         136.9491  141.2732  161.7961 O.3     1  UNL1       -0.3780
     17 H         136.3144  140.6957  162.2486 H       1  UNL1        0.2109
     18 C         138.5614  139.8307  163.2347 C.ar    1  UNL1        0.0176
     19 C         138.7789  138.4228  162.7650 C.ar    1  UNL1       -0.0010
     20 C         138.9994  137.3248  163.7629 C.ar    1  UNL1        0.0007
     21 C         139.0024  137.6347  165.2305 C.ar    1  UNL1        0.0122
     22 C         138.7849  139.0425  165.7002 C.ar    1  UNL1        0.0680
     23 CL        138.7879  139.3524  167.1678 Cl      1  UNL1       -0.0814
     24 C         138.5644  140.1405  164.7023 C.ar    1  UNL1        0.0665
     25 CL        138.3469  141.5483  165.1721 Cl      1  UNL1       -0.0816
@<TRIPOS>BOND
     1     1     2    1
     2     2     3   ar
     3     3     4   ar
     4     4     5   ar
     5     5     6   ar
     6     6     7   ar
     7     7     8    1
     8     7     9   ar
     9     9    10   ar
    10    10    11   ar
    11    11    14    1
    12    14    15    1
    13    15    16    1
    14    15    18    1
    15    18    19   ar
    16    19    20   ar
    17    20    21   ar
    18    21    22   ar
    19    22    23    1
    20    22    24   ar
    21    24    25    1
    22    11     2   ar
    23    24    18   ar
    24    10     4   ar
    25     1    12    1
    26     1    13    1
    27    16    17    1
@<TRIPOS>MOLECULE
*****
 25 27 0 0 0
SMALL
GASTEIGER

@<TRIPOS>ATOM
      1 N         138.5475  137.5691  162.3457 N.pl3   1  UNL1       -0.3288
      2 C         139.5082  137.9985  163.4146 C.ar    1  UNL1        0.1948
      3 N         140.8703  137.4202  163.6601 N.ar    1  UNL1       -0.2139
      4 C         141.4794  138.1459  164.8230 C.ar    1  UNL1        0.1000
      5 C         142.8042  138.0044  165.5120 C.ar    1  UNL1        0.0215
      6 C         143.1433  138.8897  166.6744 C.ar    1  UNL1        0.0130
      7 C         142.1576  139.9165  167.1477 C.ar    1  UNL1        0.0592
      8 CL        142.4968  140.8019  168.3102 Cl      1  UNL1       -0.0822
      9 C         140.8328  140.0581  166.4587 C.ar    1  UNL1        0.0302
     10 C         140.4937  139.1728  165.2963 C.ar    1  UNL1        0.0808
     11 N         139.2755  139.0816  164.4259 N.ar    1  UNL1       -0.2971
     12 H         138.7925  136.8445  161.7258 H       1  UNL1        0.1451
     13 H         137.6720  138.0118  162.2639 H       1  UNL1        0.1451
     14 C         138.0412  139.9256  164.5457 C.3     1  UNL1        0.1424
     15 C         137.8248  141.0755  163.6073 C.3     1  UNL1        0.1561
     16 O         136.8722  140.9358  162.4570 O.3     1  UNL1       -0.3780
     17 H         136.8498  141.7645  161.9533 H       1  UNL1        0.2109
     18 C         138.5609  142.3652  163.8191 C.ar    1  UNL1        0.0176
     19 C         137.9724  143.4292  164.6974 C.ar    1  UNL1       -0.0010
     20 C         138.7085  144.7189  164.9091 C.ar    1  UNL1        0.0007
     21 C         140.0331  144.9446  164.2425 C.ar    1  UNL1        0.0122
     22 C         140.6217  143.8806  163.3642 C.ar    1  UNL1        0.0680
     23 CL        141.9463  144.1061  162.6976 Cl      1  UNL1       -0.0814
     24 C         139.8856  142.5909  163.1525 C.ar    1  UNL1        0.0665
     25 CL        140.4741  141.5268  162.2742 Cl      1  UNL1       -0.0816
@<TRIPOS>BOND
     1     1     2    1
     2     2     3   ar
     3     3     4   ar
     4     4     5   ar
     5     5     6   ar
     6     6     7   ar
     7     7     8    1
     8     7     9   ar
     9     9    10   ar
    10    10    11   ar
    11    11    14    1
    12    14    15    1
    13    15    16    1
    14    15    18    1
    15    18    19   ar
    16    19    20   ar
    17    20    21   ar
    18    21    22   ar
    19    22    23    1
    20    22    24   ar
    21    24    25    1
    22    11     2   ar
    23    24    18   ar
    24    10     4   ar
    25     1    12    1
    26     1    13    1
    27    16    17    1
@<TRIPOS>MOLECULE
*****
 25 27 0 0 0
SMALL
GASTEIGER

@<TRIPOS>ATOM
      1 N         137.3478  139.0087  161.7120 N.pl3   1  UNL1       -0.3288
      2 C         137.9360  140.3213  162.1377 C.ar    1  UNL1        0.1948
      3 N         137.1844  141.6065  162.3201 N.ar    1  UNL1       -0.2139
      4 C         138.1629  142.6586  162.7509 C.ar    1  UNL1        0.1000
      5 C         137.9941  144.1128  163.0776 C.ar    1  UNL1        0.0215
      6 C         139.1816  144.9320  163.4881 C.ar    1  UNL1        0.0130
      7 C         140.5380  144.2971  163.5719 C.ar    1  UNL1        0.0592
      8 CL        141.7256  145.1164  163.9824 Cl      1  UNL1       -0.0822
      9 C         140.7068  142.8429  163.2452 C.ar    1  UNL1        0.0302
     10 C         139.5193  142.0237  162.8346 C.ar    1  UNL1        0.0808
     11 N         139.3790  140.5791  162.4557 N.ar    1  UNL1       -0.2971
     12 H         136.3838  138.9389  161.5247 H       1  UNL1        0.1451
     13 H         137.9258  138.2170  161.6200 H       1  UNL1        0.1451
     14 C         140.4873  139.5696  162.4038 C.3     1  UNL1        0.1424
     15 C         140.6998  138.6294  163.5530 C.3     1  UNL1        0.1561
     16 O         141.6165  137.4521  163.3992 O.3     1  UNL1       -0.3780
     17 H         141.6411  136.9508  164.2292 H       1  UNL1        0.2109
     18 C         139.9956  138.8663  164.8561 C.ar    1  UNL1        0.0176
     19 C         138.6778  138.2033  165.1278 C.ar    1  UNL1       -0.0010
     20 C         137.9736  138.4402  166.4309 C.ar    1  UNL1        0.0007
     21 C         138.5872  139.3401  167.4622 C.ar    1  UNL1        0.0122
     22 C         139.9050  140.0031  167.1905 C.ar    1  UNL1        0.0680
     23 CL        140.5187  140.9029  168.2218 Cl      1  UNL1       -0.0814
     24 C         140.6092  139.7662  165.8874 C.ar    1  UNL1        0.0665
     25 CL        141.9270  140.4291  165.6157 Cl      1  UNL1       -0.0816
@<TRIPOS>BOND
     1     1     2    1
     2     2     3   ar
     3     3     4   ar
     4     4     5   ar
     5     5     6   ar
     6     6     7   ar
     7     7     8    1
     8     7     9   ar
     9     9    10   ar
    10    10    11   ar
    11    11    14    1
    12    14    15    1
    13    15    16    1
    14    15    18    1
    15    18    19   ar
    16    19    20   ar
    17    20    21   ar
    18    21    22   ar
    19    22    23    1
    20    22    24   ar
    21    24    25    1
    22    11     2   ar
    23    24    18   ar
    24    10     4   ar
    25     1    12    1
    26     1    13    1
    27    16    17    1
@<TRIPOS>MOLECULE
*****
 25 27 0 0 0
SMALL
GASTEIGER

@<TRIPOS>ATOM
      1 N         144.1150  145.4281  162.7354 N.pl3   1  UNL1       -0.3288
      2 C         142.8367  144.7814  163.1800 C.ar    1  UNL1        0.1948
      3 N         141.6101  145.4951  163.6659 N.ar    1  UNL1       -0.2139
      4 C         140.5758  144.4623  164.0030 C.ar    1  UNL1        0.1000
      5 C         139.1751  144.5783  164.5269 C.ar    1  UNL1        0.0215
      6 C         138.3618  143.3423  164.7732 C.ar    1  UNL1        0.0130
      7 C         138.9492  141.9903  164.4957 C.ar    1  UNL1        0.0592
      8 CL        138.1358  140.7542  164.7420 Cl      1  UNL1       -0.0822
      9 C         140.3499  141.8743  163.9719 C.ar    1  UNL1        0.0302
     10 C         141.1632  143.1103  163.7255 C.ar    1  UNL1        0.0808
     11 N         142.5605  143.3075  163.2169 N.ar    1  UNL1       -0.2971
     12 H         144.2007  146.4088  162.7472 H       1  UNL1        0.1451
     13 H         144.8684  144.8718  162.4317 H       1  UNL1        0.1451
     14 C         143.5142  142.2215  162.8156 C.3     1  UNL1        0.1424
     15 C         144.4245  141.6074  163.8373 C.3     1  UNL1        0.1561
     16 O         145.9001  141.8718  163.7825 O.3     1  UNL1       -0.3780
     17 H         146.3397  141.4034  164.5093 H       1  UNL1        0.2109
     18 C         143.8595  140.7289  164.9138 C.ar    1  UNL1        0.0176
     19 C         143.7559  139.2484  164.6963 C.ar    1  UNL1       -0.0010
     20 C         143.1909  138.3699  165.7729 C.ar    1  UNL1        0.0007
     21 C         142.7295  138.9718  167.0670 C.ar    1  UNL1        0.0122
     22 C         142.8332  140.4524  167.2845 C.ar    1  UNL1        0.0680
     23 CL        142.3718  141.0544  168.5785 Cl      1  UNL1       -0.0814
     24 C         143.3982  141.3309  166.2079 C.ar    1  UNL1        0.0665
     25 CL        143.5018  142.8114  166.4255 Cl      1  UNL1       -0.0816
@<TRIPOS>BOND
     1     1     2    1
     2     2     3   ar
     3     3     4   ar
     4     4     5   ar
     5     5     6   ar
     6     6     7   ar
     7     7     8    1
     8     7     9   ar
     9     9    10   ar
    10    10    11   ar
    11    11    14    1
    12    14    15    1
    13    15    16    1
    14    15    18    1
    15    18    19   ar
    16    19    20   ar
    17    20    21   ar
    18    21    22   ar
    19    22    23    1
    20    22    24   ar
    21    24    25    1
    22    11     2   ar
    23    24    18   ar
    24    10     4   ar
    25     1    12    1
    26     1    13    1
    27    16    17    1
@<TRIPOS>MOLECULE
*****
 25 27 0 0 0
SMALL
GASTEIGER

@<TRIPOS>ATOM
      1 N         143.0807  137.5015  161.5219 N.pl3   1  UNL1       -0.3288
      2 C         142.1147  137.8107  162.6270 C.ar    1  UNL1        0.1948
      3 N         140.6990  137.3245  162.7224 N.ar    1  UNL1       -0.2139
      4 C         140.1042  137.8737  163.9852 C.ar    1  UNL1        0.1000
      5 C         138.7436  137.7287  164.5997 C.ar    1  UNL1        0.0215
      6 C         138.4312  138.4093  165.8993 C.ar    1  UNL1        0.0130
      7 C         139.4794  139.2351  166.5844 C.ar    1  UNL1        0.0592
      8 CL        139.1669  139.9158  167.8840 Cl      1  UNL1       -0.0822
      9 C         140.8400  139.3802  165.9699 C.ar    1  UNL1        0.0302
     10 C         141.1524  138.6995  164.6703 C.ar    1  UNL1        0.0808
     11 N         142.3949  138.6606  163.8309 N.ar    1  UNL1       -0.2971
     12 H         142.8019  136.9306  160.7698 H       1  UNL1        0.1451
     13 H         143.9935  137.8694  161.5486 H       1  UNL1        0.1451
     14 C         143.6903  139.3504  164.1410 C.3     1  UNL1        0.1424
     15 C         144.1824  140.4558  163.2546 C.3     1  UNL1        0.1561
     16 O         145.0230  140.1365  162.0539 O.3     1  UNL1       -0.3780
     17 H         145.2547  140.9583  161.5936 H       1  UNL1        0.2109
     18 C         143.8339  141.8806  163.5686 C.ar    1  UNL1        0.0176
     19 C         144.6680  142.6596  164.5420 C.ar    1  UNL1       -0.0010
     20 C         144.3195  144.0844  164.8561 C.ar    1  UNL1        0.0007
     21 C         143.1370  144.7301  164.1968 C.ar    1  UNL1        0.0122
     22 C         142.3029  143.9510  163.2235 C.ar    1  UNL1        0.0680
     23 CL        141.1204  144.5967  162.5642 Cl      1  UNL1       -0.0814
     24 C         142.6514  142.5263  162.9094 C.ar    1  UNL1        0.0665
     25 CL        141.8173  141.7472  161.9360 Cl      1  UNL1       -0.0816
@<TRIPOS>BOND
     1     1     2    1
     2     2     3   ar
     3     3     4   ar
     4     4     5   ar
     5     5     6   ar
     6     6     7   ar
     7     7     8    1
     8     7     9   ar
     9     9    10   ar
    10    10    11   ar
    11    11    14    1
    12    14    15    1
    13    15    16    1
    14    15    18    1
    15    18    19   ar
    16    19    20   ar
    17    20    21   ar
    18    21    22   ar
    19    22    23    1
    20    22    24   ar
    21    24    25    1
    22    11     2   ar
    23    24    18   ar
    24    10     4   ar
    25     1    12    1
    26     1    13    1
    27    16    17    1
