@<TRIPOS>MOLECULE
*****
 45 51 0 0 0
SMALL
GASTEIGER

@<TRIPOS>ATOM
      1 C         142.0126  138.0546  164.0864 C.3     1  UNL1        0.0932
      2 C         142.9160  138.6112  165.1465 C.3     1  UNL1        0.0286
      3 C         144.1052  139.4395  164.7595 C.3     1  UNL1        0.0193
      4 C         144.3909  139.7112  163.3122 C.3     1  UNL1        0.0700
      5 C         143.4874  139.1546  162.2520 C.3     1  UNL1        0.0193
      6 C         142.2983  138.3263  162.6391 C.3     1  UNL1        0.0286
      7 C         143.7274  139.2518  163.4756 C.3     1  UNL1        0.1562
      8 O         142.6521  138.5029  163.8256 O.3     1  UNL1       -0.3572
      9 N         145.5801  140.5394  162.9251 N.3     1  UNL1       -0.2926
     10 H         145.6312  140.5232  161.9065 H       1  UNL1        0.1236
     11 C         145.6585  141.9788  163.3397 C.3     1  UNL1        0.1152
     12 C         144.4555  142.8647  163.2050 C.ar    1  UNL1        0.0765
     13 C         143.8185  143.4555  164.4278 C.ar    1  UNL1        0.0193
     14 C         142.6156  144.3414  164.2932 C.ar    1  UNL1        0.0411
     15 C         142.0497  144.6365  162.9358 C.ar    1  UNL1        0.1708
     16 C         142.6867  144.0457  161.7130 C.ar    1  UNL1        0.1682
     17 N         143.8896  143.1598  161.8476 N.ar    1  UNL1       -0.2304
     18 N         142.1207  144.3408  160.3555 N.am    1  UNL1       -0.2639
     19 C         140.9178  145.2267  160.2209 C.2     1  UNL1        0.2718
     20 O         140.3518  145.5218  158.8635 O.2     1  UNL1       -0.2707
     21 C         140.2808  145.8175  161.4437 C.3     1  UNL1        0.2898
     22 O         140.8467  145.5224  162.8011 O.3     1  UNL1       -0.4628
     23 H         142.5387  143.9531  159.5530 H       1  UNL1        0.1565
     24 C         140.8233  137.2263  164.4734 C.3     1  UNL1        0.0320
     25 C         139.5662  137.8941  164.9464 C.3     1  UNL1        0.0327
     26 C         140.2686  141.9867  166.6806 C.ar    1  UNL1        0.2250
     27 C         139.7514  143.2016  165.9691 C.ar    1  UNL1        0.0593
     28 C         139.0000  143.0524  164.6794 C.ar    1  UNL1        0.0254
     29 C         138.7659  141.6882  164.1014 C.ar    1  UNL1        0.0990
     30 N         138.0145  141.5390  162.8116 N.ar    1  UNL1       -0.2400
     31 C         137.7804  140.1748  162.2336 C.ar    1  UNL1        0.1281
     32 C         138.2977  138.9598  162.9452 C.ar    1  UNL1        0.1566
     33 F         138.0635  137.5956  162.3671 F       1  UNL1       -0.2028
     34 C         139.0490  139.1090  164.2348 C.ar    1  UNL1        0.0261
     35 C         139.2831  140.4732  164.8129 C.ar    1  UNL1        0.1002
     36 N         140.0344  140.6225  166.1025 N.ar    1  UNL1       -0.2104
     37 O         141.0199  142.1358  167.9703 O.3     1  UNL1       -0.4575
     38 C         142.3832  141.5281  168.1187 C.3     1  UNL1        0.2378
     39 N         142.0823  140.7556  171.6438 N.3     1  UNL1       -0.3181
     40 C         142.4437  139.9761  170.4142 C.3     1  UNL1        0.1121
     41 C         142.8301  138.5537  170.1356 C.3     1  UNL1        0.1602
     42 O         142.9547  138.8738  168.6754 O.3     1  UNL1       -0.3495
     43 C         142.5683  140.2961  168.9541 C.3     1  UNL1        0.1753
     44 H         142.1191  140.1424  172.4581 H       1  UNL1        0.1190
     45 H         141.1393  141.1312  171.5433 H       1  UNL1        0.1190
@<TRIPOS>BOND
     1    40    39    1
     2    40    41    1
     3    41    42    1
     4    42    43    1
     5    43    38    1
     6    38    37    1
     7    37    26    1
     8    26    27   ar
     9    27    28   ar
    10    28    29   ar
    11    29    30   ar
    12    30    31   ar
    13    31    32   ar
    14    32    33    1
    15    32    34   ar
    16    34    25    1
    17    25    24    1
    18    24     1    1
    19     1     2    1
    20     2     3    1
    21     3     4    1
    22     4     9    1
    23     9    11    1
    24    11    12    1
    25    12    13   ar
    26    13    14   ar
    27    14    15   ar
    28    15    16   ar
    29    16    17   ar
    30    16    18    1
    31    18    19   am
    32    19    20    2
    33    19    21    1
    34    21    22    1
    35     4     5    1
    36     5     6    1
    37     4     7    1
    38     7     8    1
    39    34    35   ar
    40    35    36   ar
    41    43    40    1
    42    36    26   ar
    43    35    29   ar
    44     6     1    1
    45     8     1    1
    46    17    12   ar
    47    22    15    1
    48    39    44    1
    49    39    45    1
    50     9    10    1
    51    18    23    1
@<TRIPOS>MOLECULE
*****
 45 51 0 0 0
SMALL
GASTEIGER

@<TRIPOS>ATOM
      1 C         137.9138  142.9617  162.7726 C.3     1  UNL1        0.0932
      2 C         137.4909  141.6142  163.2778 C.3     1  UNL1        0.0286
      3 C         137.6208  140.4078  162.3958 C.3     1  UNL1        0.0193
      4 C         138.1737  140.5490  161.0086 C.3     1  UNL1        0.0700
      5 C         138.5966  141.8966  160.5033 C.3     1  UNL1        0.0193
      6 C         138.4667  143.1029  161.3853 C.3     1  UNL1        0.0286
      7 C         138.1215  141.2389  161.4551 C.3     1  UNL1        0.1562
      8 O         138.0040  142.3296  162.2526 O.3     1  UNL1       -0.3572
      9 N         138.3036  139.3427  160.1266 N.3     1  UNL1       -0.2926
     10 H         137.9328  139.6045  159.2132 H       1  UNL1        0.1236
     11 C         139.6518  138.7302  159.8874 C.3     1  UNL1        0.1152
     12 C         140.6807  138.7318  160.9790 C.ar    1  UNL1        0.0765
     13 C         140.5827  137.7438  162.1034 C.ar    1  UNL1        0.0193
     14 C         141.6115  137.7454  163.1949 C.ar    1  UNL1        0.0411
     15 C         142.7382  138.7349  163.1621 C.ar    1  UNL1        0.1708
     16 C         142.8362  139.7229  162.0377 C.ar    1  UNL1        0.1682
     17 N         141.8074  139.7214  160.9462 N.ar    1  UNL1       -0.2304
     18 N         143.9631  140.7125  162.0049 N.am    1  UNL1       -0.2639
     19 C         144.9919  140.7141  163.0965 C.2     1  UNL1        0.2718
     20 O         146.1187  141.7036  163.0637 O.2     1  UNL1       -0.2707
     21 C         144.8939  139.7261  164.2208 C.3     1  UNL1        0.2898
     22 O         143.7671  138.7365  164.2537 O.3     1  UNL1       -0.4628
     23 H         144.0274  141.3610  161.2669 H       1  UNL1        0.1565
     24 C         137.7839  144.1680  163.6546 C.3     1  UNL1        0.0320
     25 C         138.7653  144.3934  164.7664 C.3     1  UNL1        0.0327
     26 C         141.2907  141.6345  167.2685 C.ar    1  UNL1        0.2250
     27 C         142.7627  141.5191  167.0044 C.ar    1  UNL1        0.0593
     28 C         143.3930  142.3234  165.9063 C.ar    1  UNL1        0.0254
     29 C         142.5512  143.2431  165.0723 C.ar    1  UNL1        0.0990
     30 N         143.1815  144.0474  163.9741 N.ar    1  UNL1       -0.2400
     31 C         142.3397  144.9670  163.1401 C.ar    1  UNL1        0.1281
     32 C         140.8676  145.0823  163.4042 C.ar    1  UNL1        0.1566
     33 F         140.0257  146.0020  162.5702 F       1  UNL1       -0.2028
     34 C         140.2373  144.2781  164.5023 C.ar    1  UNL1        0.0261
     35 C         141.0791  143.3584  165.3364 C.ar    1  UNL1        0.1002
     36 N         140.4489  142.5541  166.4345 N.ar    1  UNL1       -0.2104
     37 O         140.6604  140.8302  168.3667 O.3     1  UNL1       -0.4575
     38 C         139.2831  140.2643  168.1861 C.3     1  UNL1        0.2378
     39 N         136.8583  137.6697  167.4773 N.3     1  UNL1       -0.3181
     40 C         137.9762  138.3142  166.7126 C.3     1  UNL1        0.1121
     41 C         138.5528  138.1509  165.3375 C.3     1  UNL1        0.1602
     42 O         139.5572  139.2256  165.6311 O.3     1  UNL1       -0.3495
     43 C         138.9806  139.3889  167.0061 C.3     1  UNL1        0.1753
     44 H         136.4110  136.9624  166.8942 H       1  UNL1        0.1190
     45 H         136.1726  138.3781  167.7389 H       1  UNL1        0.1190
@<TRIPOS>BOND
     1    40    39    1
     2    40    41    1
     3    41    42    1
     4    42    43    1
     5    43    38    1
     6    38    37    1
     7    37    26    1
     8    26    27   ar
     9    27    28   ar
    10    28    29   ar
    11    29    30   ar
    12    30    31   ar
    13    31    32   ar
    14    32    33    1
    15    32    34   ar
    16    34    25    1
    17    25    24    1
    18    24     1    1
    19     1     2    1
    20     2     3    1
    21     3     4    1
    22     4     9    1
    23     9    11    1
    24    11    12    1
    25    12    13   ar
    26    13    14   ar
    27    14    15   ar
    28    15    16   ar
    29    16    17   ar
    30    16    18    1
    31    18    19   am
    32    19    20    2
    33    19    21    1
    34    21    22    1
    35     4     5    1
    36     5     6    1
    37     4     7    1
    38     7     8    1
    39    34    35   ar
    40    35    36   ar
    41    43    40    1
    42    36    26   ar
    43    35    29   ar
    44     6     1    1
    45     8     1    1
    46    17    12   ar
    47    22    15    1
    48    39    44    1
    49    39    45    1
    50     9    10    1
    51    18    23    1
@<TRIPOS>MOLECULE
*****
 45 51 0 0 0
SMALL
GASTEIGER

@<TRIPOS>ATOM
      1 C         137.9198  142.6426  163.7569 C.3     1  UNL1        0.0932
      2 C         138.0360  141.4256  164.6260 C.3     1  UNL1        0.0286
      3 C         138.0205  140.0587  164.0085 C.3     1  UNL1        0.0193
      4 C         137.8888  139.9088  162.5218 C.3     1  UNL1        0.0700
      5 C         137.7726  141.1259  161.6527 C.3     1  UNL1        0.0193
      6 C         137.7881  142.4927  162.2702 C.3     1  UNL1        0.0286
      7 C         137.8925  140.6785  162.8144 C.3     1  UNL1        0.1562
      8 O         137.9065  141.9144  163.3728 O.3     1  UNL1       -0.3572
      9 N         137.8733  138.5420  161.9042 N.3     1  UNL1       -0.2926
     10 H         137.1346  138.5450  161.2009 H       1  UNL1        0.1236
     11 C         139.1051  138.0068  161.2362 C.3     1  UNL1        0.1152
     12 C         140.4573  138.2836  161.8237 C.ar    1  UNL1        0.0765
     13 C         141.5566  138.8200  160.9555 C.ar    1  UNL1        0.0193
     14 C         142.9088  139.0968  161.5429 C.ar    1  UNL1        0.0411
     15 C         143.1615  138.8373  162.9984 C.ar    1  UNL1        0.1708
     16 C         142.0622  138.3009  163.8666 C.ar    1  UNL1        0.1682
     17 N         140.7100  138.0241  163.2792 N.ar    1  UNL1       -0.2304
     18 N         142.3150  138.0414  165.3223 N.am    1  UNL1       -0.2639
     19 C         143.6671  138.3182  165.9096 C.2     1  UNL1        0.2718
     20 O         143.9199  138.0587  167.3653 O.2     1  UNL1       -0.2707
     21 C         144.7665  138.8546  165.0415 C.3     1  UNL1        0.2898
     22 O         144.5137  139.1141  163.5859 O.3     1  UNL1       -0.4628
     23 H         141.5934  137.6894  165.8921 H       1  UNL1        0.1565
     24 C         137.9353  144.0096  164.3745 C.3     1  UNL1        0.0320
     25 C         139.2412  144.6616  164.7201 C.3     1  UNL1        0.0327
     26 C         142.9418  142.3154  165.7451 C.ar    1  UNL1        0.2250
     27 C         144.0868  142.2603  164.7777 C.ar    1  UNL1        0.0593
     28 C         143.9983  142.9874  163.4687 C.ar    1  UNL1        0.0254
     29 C         142.7648  143.7694  163.1271 C.ar    1  UNL1        0.0990
     30 N         142.6763  144.4965  161.8180 N.ar    1  UNL1       -0.2400
     31 C         141.4427  145.2786  161.4763 C.ar    1  UNL1        0.1281
     32 C         140.2977  145.3336  162.4438 C.ar    1  UNL1        0.1566
     33 F         139.0641  146.1157  162.1021 F       1  UNL1       -0.2028
     34 C         140.3862  144.6065  163.7528 C.ar    1  UNL1        0.0261
     35 C         141.6198  143.8245  164.0944 C.ar    1  UNL1        0.1002
     36 N         141.7083  143.0974  165.4034 N.ar    1  UNL1       -0.2104
     37 O         143.0303  141.5883  167.0542 O.3     1  UNL1       -0.4575
     38 C         143.0816  142.3606  168.3390 C.3     1  UNL1        0.2378
     39 N         142.0470  142.0656  171.7968 N.3     1  UNL1       -0.3181
     40 C         141.3889  142.5204  170.5279 C.3     1  UNL1        0.1121
     41 C         140.0297  143.0414  170.1657 C.3     1  UNL1        0.1602
     42 O         140.4584  143.1636  168.7334 O.3     1  UNL1       -0.3495
     43 C         141.8175  142.6426  169.0956 C.3     1  UNL1        0.1753
     44 H         141.3857  142.1433  172.5695 H       1  UNL1        0.1190
     45 H         142.8612  142.6502  171.9860 H       1  UNL1        0.1190
@<TRIPOS>BOND
     1    40    39    1
     2    40    41    1
     3    41    42    1
     4    42    43    1
     5    43    38    1
     6    38    37    1
     7    37    26    1
     8    26    27   ar
     9    27    28   ar
    10    28    29   ar
    11    29    30   ar
    12    30    31   ar
    13    31    32   ar
    14    32    33    1
    15    32    34   ar
    16    34    25    1
    17    25    24    1
    18    24     1    1
    19     1     2    1
    20     2     3    1
    21     3     4    1
    22     4     9    1
    23     9    11    1
    24    11    12    1
    25    12    13   ar
    26    13    14   ar
    27    14    15   ar
    28    15    16   ar
    29    16    17   ar
    30    16    18    1
    31    18    19   am
    32    19    20    2
    33    19    21    1
    34    21    22    1
    35     4     5    1
    36     5     6    1
    37     4     7    1
    38     7     8    1
    39    34    35   ar
    40    35    36   ar
    41    43    40    1
    42    36    26   ar
    43    35    29   ar
    44     6     1    1
    45     8     1    1
    46    17    12   ar
    47    22    15    1
    48    39    44    1
    49    39    45    1
    50     9    10    1
    51    18    23    1
@<TRIPOS>MOLECULE
*****
 45 51 0 0 0
SMALL
GASTEIGER

@<TRIPOS>ATOM
      1 C         143.7524  142.0295  164.0364 C.3     1  UNL1        0.0932
      2 C         144.0170  142.7930  162.7727 C.3     1  UNL1        0.0286
      3 C         143.2618  144.0575  162.4883 C.3     1  UNL1        0.0193
      4 C         142.2421  144.5585  163.4678 C.3     1  UNL1        0.0700
      5 C         141.9776  143.7949  164.7316 C.3     1  UNL1        0.0193
      6 C         142.7328  142.5305  165.0158 C.3     1  UNL1        0.0286
      7 C         142.6309  143.8606  163.6671 C.3     1  UNL1        0.1562
      8 O         143.3138  142.7172  163.9242 O.3     1  UNL1       -0.3572
      9 N         141.4870  145.8229  163.1835 N.3     1  UNL1       -0.2926
     10 H         142.1437  146.4645  162.7391 H       1  UNL1        0.1236
     11 C         140.2632  145.7869  162.3169 C.3     1  UNL1        0.1152
     12 C         139.4914  144.5100  162.1617 C.ar    1  UNL1        0.0765
     13 C         138.4306  144.1490  163.1589 C.ar    1  UNL1        0.0193
     14 C         137.6588  142.8722  163.0038 C.ar    1  UNL1        0.0411
     15 C         137.9478  141.9565  161.8515 C.ar    1  UNL1        0.1708
     16 C         139.0086  142.3175  160.8543 C.ar    1  UNL1        0.1682
     17 N         139.7804  143.5943  161.0094 N.ar    1  UNL1       -0.2304
     18 N         139.2976  141.4016  159.7020 N.am    1  UNL1       -0.2639
     19 C         138.5258  140.1249  159.5469 C.2     1  UNL1        0.2718
     20 O         138.8148  139.2090  158.3946 O.2     1  UNL1       -0.2707
     21 C         137.4650  139.7638  160.5440 C.3     1  UNL1        0.2898
     22 O         137.1760  140.6796  161.6963 O.3     1  UNL1       -0.4628
     23 H         139.9939  141.6386  159.0475 H       1  UNL1        0.1565
     24 C         144.5076  140.7650  164.3208 C.3     1  UNL1        0.0320
     25 C         143.7643  139.5106  164.6730 C.3     1  UNL1        0.0327
     26 C         139.6011  139.4587  166.3803 C.ar    1  UNL1        0.2250
     27 C         138.4486  139.0068  165.5332 C.ar    1  UNL1        0.0593
     28 C         138.6840  138.5722  164.1170 C.ar    1  UNL1        0.0254
     29 C         140.0717  138.5896  163.5479 C.ar    1  UNL1        0.0990
     30 N         140.3070  138.1550  162.1316 N.ar    1  UNL1       -0.2400
     31 C         141.6947  138.1723  161.5625 C.ar    1  UNL1        0.1281
     32 C         142.8472  138.6242  162.4097 C.ar    1  UNL1        0.1566
     33 F         144.2349  138.6415  161.8406 F       1  UNL1       -0.2028
     34 C         142.6119  139.0588  163.8259 C.ar    1  UNL1        0.0261
     35 C         141.2241  139.0414  164.3950 C.ar    1  UNL1        0.1002
     36 N         140.9888  139.4760  165.8112 N.ar    1  UNL1       -0.2104
     37 O         139.3658  139.8932  167.7967 O.3     1  UNL1       -0.4575
     38 C         140.5041  140.4226  168.6177 C.3     1  UNL1        0.2378
     39 N         140.5323  142.0193  171.8678 N.3     1  UNL1       -0.3181
     40 C         140.4945  142.5033  170.4486 C.3     1  UNL1        0.1121
     41 C         140.4527  143.8493  169.7878 C.3     1  UNL1        0.1602
     42 O         140.4411  143.1879  168.4415 O.3     1  UNL1       -0.3495
     43 C         140.4828  141.8420  169.1023 C.3     1  UNL1        0.1753
     44 H         140.5272  142.8195  172.5003 H       1  UNL1        0.1190
     45 H         141.3801  141.4725  172.0181 H       1  UNL1        0.1190
@<TRIPOS>BOND
     1    40    39    1
     2    40    41    1
     3    41    42    1
     4    42    43    1
     5    43    38    1
     6    38    37    1
     7    37    26    1
     8    26    27   ar
     9    27    28   ar
    10    28    29   ar
    11    29    30   ar
    12    30    31   ar
    13    31    32   ar
    14    32    33    1
    15    32    34   ar
    16    34    25    1
    17    25    24    1
    18    24     1    1
    19     1     2    1
    20     2     3    1
    21     3     4    1
    22     4     9    1
    23     9    11    1
    24    11    12    1
    25    12    13   ar
    26    13    14   ar
    27    14    15   ar
    28    15    16   ar
    29    16    17   ar
    30    16    18    1
    31    18    19   am
    32    19    20    2
    33    19    21    1
    34    21    22    1
    35     4     5    1
    36     5     6    1
    37     4     7    1
    38     7     8    1
    39    34    35   ar
    40    35    36   ar
    41    43    40    1
    42    36    26   ar
    43    35    29   ar
    44     6     1    1
    45     8     1    1
    46    17    12   ar
    47    22    15    1
    48    39    44    1
    49    39    45    1
    50     9    10    1
    51    18    23    1
@<TRIPOS>MOLECULE
*****
 45 51 0 0 0
SMALL
GASTEIGER

@<TRIPOS>ATOM
      1 C         138.3127  140.1187  164.4411 C.3     1  UNL1        0.0932
      2 C         137.7457  140.2682  163.0605 C.3     1  UNL1        0.0286
      3 C         137.5350  141.6353  162.4802 C.3     1  UNL1        0.0193
      4 C         137.8913  142.8529  163.2806 C.3     1  UNL1        0.0700
      5 C         138.4584  142.7033  164.6613 C.3     1  UNL1        0.0193
      6 C         138.6690  141.3362  165.2415 C.3     1  UNL1        0.0286
      7 C         138.0247  142.1246  163.6409 C.3     1  UNL1        0.1562
      8 O         138.2152  140.8884  164.1656 O.3     1  UNL1       -0.3572
      9 N         137.6807  144.2199  162.7004 N.3     1  UNL1       -0.2926
     10 H         137.0577  144.7171  163.3368 H       1  UNL1        0.1236
     11 C         138.8556  145.1192  162.4539 C.3     1  UNL1        0.1152
     12 C         140.0775  144.5855  161.7667 C.ar    1  UNL1        0.0765
     13 C         140.1714  144.6199  160.2700 C.ar    1  UNL1        0.0193
     14 C         141.3932  144.0862  159.5828 C.ar    1  UNL1        0.0411
     15 C         142.5211  143.5182  160.3922 C.ar    1  UNL1        0.1708
     16 C         142.4271  143.4838  161.8889 C.ar    1  UNL1        0.1682
     17 N         141.2053  144.0175  162.5761 N.ar    1  UNL1       -0.2304
     18 N         143.5551  142.9157  162.6983 N.am    1  UNL1       -0.2639
     19 C         144.7769  142.3820  162.0111 C.2     1  UNL1        0.2718
     20 O         145.9048  141.8139  162.8205 O.2     1  UNL1       -0.2707
     21 C         144.8708  142.4164  160.5144 C.3     1  UNL1        0.2898
     22 O         143.7430  142.9844  159.7050 O.3     1  UNL1       -0.4628
     23 H         143.4934  142.8931  163.6806 H       1  UNL1        0.1565
     24 C         138.5234  138.7516  165.0214 C.3     1  UNL1        0.0320
     25 C         139.2409  137.7016  164.2260 C.3     1  UNL1        0.0327
     26 C         143.0394  138.8095  166.3693 C.ar    1  UNL1        0.2250
     27 C         144.2655  139.1706  165.5843 C.ar    1  UNL1        0.0593
     28 C         144.2254  139.1624  164.0849 C.ar    1  UNL1        0.0254
     29 C         142.9593  138.7931  163.3704 C.ar    1  UNL1        0.0990
     30 N         142.9192  138.7849  161.8709 N.ar    1  UNL1       -0.2400
     31 C         141.6530  138.4156  161.1565 C.ar    1  UNL1        0.1281
     32 C         140.4269  138.0545  161.9416 C.ar    1  UNL1        0.1566
     33 F         139.1607  137.6852  161.2272 F       1  UNL1       -0.2028
     34 C         140.4670  138.0627  163.4410 C.ar    1  UNL1        0.0261
     35 C         141.7332  138.4320  164.1554 C.ar    1  UNL1        0.1002
     36 N         141.7733  138.4402  165.6548 N.ar    1  UNL1       -0.2104
     37 O         143.0795  138.8177  167.8688 O.3     1  UNL1       -0.4575
     38 C         142.5952  140.0189  168.6254 C.3     1  UNL1        0.2378
     39 N         140.8488  140.5436  171.7541 N.3     1  UNL1       -0.3181
     40 C         140.4315  140.3357  170.3284 C.3     1  UNL1        0.1121
     41 C         139.1180  140.2591  169.6081 C.3     1  UNL1        0.1602
     42 O         139.8414  140.0417  168.3122 O.3     1  UNL1       -0.3495
     43 C         141.1549  140.1184  169.0324 C.3     1  UNL1        0.1753
     44 H         140.0200  140.6546  172.3382 H       1  UNL1        0.1190
     45 H         141.4263  141.3818  171.8205 H       1  UNL1        0.1190
@<TRIPOS>BOND
     1    40    39    1
     2    40    41    1
     3    41    42    1
     4    42    43    1
     5    43    38    1
     6    38    37    1
     7    37    26    1
     8    26    27   ar
     9    27    28   ar
    10    28    29   ar
    11    29    30   ar
    12    30    31   ar
    13    31    32   ar
    14    32    33    1
    15    32    34   ar
    16    34    25    1
    17    25    24    1
    18    24     1    1
    19     1     2    1
    20     2     3    1
    21     3     4    1
    22     4     9    1
    23     9    11    1
    24    11    12    1
    25    12    13   ar
    26    13    14   ar
    27    14    15   ar
    28    15    16   ar
    29    16    17   ar
    30    16    18    1
    31    18    19   am
    32    19    20    2
    33    19    21    1
    34    21    22    1
    35     4     5    1
    36     5     6    1
    37     4     7    1
    38     7     8    1
    39    34    35   ar
    40    35    36   ar
    41    43    40    1
    42    36    26   ar
    43    35    29   ar
    44     6     1    1
    45     8     1    1
    46    17    12   ar
    47    22    15    1
    48    39    44    1
    49    39    45    1
    50     9    10    1
    51    18    23    1
@<TRIPOS>MOLECULE
*****
 45 51 0 0 0
SMALL
GASTEIGER

@<TRIPOS>ATOM
      1 C         137.7891  143.0048  162.7861 C.3     1  UNL1        0.0932
      2 C         138.0630  142.5978  161.3686 C.3     1  UNL1        0.0286
      3 C         138.1203  141.1440  161.0034 C.3     1  UNL1        0.0193
      4 C         137.9037  140.0973  162.0557 C.3     1  UNL1        0.0700
      5 C         137.6298  140.5044  163.4733 C.3     1  UNL1        0.0193
      6 C         137.5725  141.9581  163.8384 C.3     1  UNL1        0.0286
      7 C         137.8628  140.8814  162.3038 C.3     1  UNL1        0.1562
      8 O         137.8110  142.1959  162.6340 O.3     1  UNL1       -0.3572
      9 N         137.9610  138.6436  161.6906 N.3     1  UNL1       -0.2926
     10 H         137.3410  138.5162  160.8908 H       1  UNL1        0.1236
     11 C         139.2724  138.0129  161.3266 C.3     1  UNL1        0.1152
     12 C         140.4721  138.2176  162.2034 C.ar    1  UNL1        0.0765
     13 C         140.6186  137.4282  163.4704 C.ar    1  UNL1        0.0193
     14 C         141.8183  137.6329  164.3472 C.ar    1  UNL1        0.0411
     15 C         142.8715  138.6270  163.9570 C.ar    1  UNL1        0.1708
     16 C         142.7251  139.4165  162.6900 C.ar    1  UNL1        0.1682
     17 N         141.5254  139.2118  161.8132 N.ar    1  UNL1       -0.2304
     18 N         143.7784  140.4107  162.2998 N.am    1  UNL1       -0.2639
     19 C         144.9781  140.6154  163.1766 C.2     1  UNL1        0.2718
     20 O         146.0314  141.6096  162.7864 O.2     1  UNL1       -0.2707
     21 C         145.1245  139.8259  164.4436 C.3     1  UNL1        0.2898
     22 O         144.0713  138.8318  164.8338 O.3     1  UNL1       -0.4628
     23 H         143.6823  140.9288  161.4682 H       1  UNL1        0.1565
     24 C         137.7318  144.4586  163.1513 C.3     1  UNL1        0.0320
     25 C         138.8933  145.1032  163.8479 C.3     1  UNL1        0.0327
     26 C         140.7823  142.4162  166.9239 C.ar    1  UNL1        0.2250
     27 C         142.1708  141.8910  166.7096 C.ar    1  UNL1        0.0593
     28 C         142.9298  142.2614  165.4700 C.ar    1  UNL1        0.0254
     29 C         142.3001  143.1571  164.4446 C.ar    1  UNL1        0.0990
     30 N         143.0591  143.5275  163.2049 N.ar    1  UNL1       -0.2400
     31 C         142.4295  144.4232  162.1796 C.ar    1  UNL1        0.1281
     32 C         141.0408  144.9484  162.3939 C.ar    1  UNL1        0.1566
     33 F         140.4112  145.8441  161.3686 F       1  UNL1       -0.2028
     34 C         140.2819  144.5780  163.6336 C.ar    1  UNL1        0.0261
     35 C         140.9115  143.6823  164.6589 C.ar    1  UNL1        0.1002
     36 N         140.1526  143.3119  165.8986 N.ar    1  UNL1       -0.2104
     37 O         140.0233  142.0458  168.1636 O.3     1  UNL1       -0.4575
     38 C         140.6331  142.2788  169.5141 C.3     1  UNL1        0.2378
     39 N         144.2156  142.5128  169.9881 N.3     1  UNL1       -0.3181
     40 C         143.1818  141.4514  170.2222 C.3     1  UNL1        0.1121
     41 C         143.2038  140.0474  170.7495 C.3     1  UNL1        0.1602
     42 O         141.7198  139.9505  170.5532 O.3     1  UNL1       -0.3495
     43 C         141.6979  141.3545  170.0258 C.3     1  UNL1        0.1753
     44 H         145.1326  142.1608  170.2631 H       1  UNL1        0.1190
     45 H         143.9876  143.3377  170.5430 H       1  UNL1        0.1190
@<TRIPOS>BOND
     1    40    39    1
     2    40    41    1
     3    41    42    1
     4    42    43    1
     5    43    38    1
     6    38    37    1
     7    37    26    1
     8    26    27   ar
     9    27    28   ar
    10    28    29   ar
    11    29    30   ar
    12    30    31   ar
    13    31    32   ar
    14    32    33    1
    15    32    34   ar
    16    34    25    1
    17    25    24    1
    18    24     1    1
    19     1     2    1
    20     2     3    1
    21     3     4    1
    22     4     9    1
    23     9    11    1
    24    11    12    1
    25    12    13   ar
    26    13    14   ar
    27    14    15   ar
    28    15    16   ar
    29    16    17   ar
    30    16    18    1
    31    18    19   am
    32    19    20    2
    33    19    21    1
    34    21    22    1
    35     4     5    1
    36     5     6    1
    37     4     7    1
    38     7     8    1
    39    34    35   ar
    40    35    36   ar
    41    43    40    1
    42    36    26   ar
    43    35    29   ar
    44     6     1    1
    45     8     1    1
    46    17    12   ar
    47    22    15    1
    48    39    44    1
    49    39    45    1
    50     9    10    1
    51    18    23    1
@<TRIPOS>MOLECULE
*****
 45 51 0 0 0
SMALL
GASTEIGER

@<TRIPOS>ATOM
      1 C         142.9054  138.5582  163.0256 C.3     1  UNL1        0.0932
      2 C         142.6312  139.0329  161.6294 C.3     1  UNL1        0.0286
      3 C         141.2778  138.8220  161.0177 C.3     1  UNL1        0.0193
      4 C         140.1988  138.1364  161.8023 C.3     1  UNL1        0.0700
      5 C         140.4731  137.6616  163.1986 C.3     1  UNL1        0.0193
      6 C         141.8264  137.8726  163.8102 C.3     1  UNL1        0.0286
      7 C         140.9246  138.2294  162.1798 C.3     1  UNL1        0.1562
      8 O         142.1483  138.4201  162.7328 O.3     1  UNL1       -0.3572
      9 N         138.8455  137.9255  161.1908 N.3     1  UNL1       -0.2926
     10 H         138.5291  137.0021  161.4870 H       1  UNL1        0.1236
     11 C         137.7298  138.8822  161.4903 C.3     1  UNL1        0.1152
     12 C         138.0330  140.3247  161.7683 C.ar    1  UNL1        0.0765
     13 C         137.3981  141.0122  162.9406 C.ar    1  UNL1        0.0193
     14 C         137.7013  142.4547  163.2185 C.ar    1  UNL1        0.0411
     15 C         138.6394  143.2097  162.3242 C.ar    1  UNL1        0.1708
     16 C         139.2743  142.5222  161.1518 C.ar    1  UNL1        0.1682
     17 N         138.9711  141.0797  160.8739 N.ar    1  UNL1       -0.2304
     18 N         140.2124  143.2773  160.2574 N.am    1  UNL1       -0.2639
     19 C         140.5156  144.7198  160.5354 C.2     1  UNL1        0.2718
     20 O         141.4537  145.4749  159.6410 O.2     1  UNL1       -0.2707
     21 C         139.8807  145.4072  161.7077 C.3     1  UNL1        0.2898
     22 O         138.9426  144.6522  162.6021 O.3     1  UNL1       -0.4628
     23 H         140.6291  142.8261  159.4880 H       1  UNL1        0.1565
     24 C         144.2588  138.7691  163.6372 C.3     1  UNL1        0.0320
     25 C         144.4547  139.8332  164.6762 C.3     1  UNL1        0.0327
     26 C         140.4810  141.0364  166.4117 C.ar    1  UNL1        0.2250
     27 C         139.9486  142.4192  166.1787 C.ar    1  UNL1        0.0593
     28 C         140.7407  143.4009  165.3671 C.ar    1  UNL1        0.0254
     29 C         142.0653  142.9998  164.7886 C.ar    1  UNL1        0.0990
     30 N         142.8574  143.9816  163.9770 N.ar    1  UNL1       -0.2400
     31 C         144.1820  143.5806  163.3985 C.ar    1  UNL1        0.1281
     32 C         144.7144  142.1977  163.6316 C.ar    1  UNL1        0.1566
     33 F         146.0390  141.7966  163.0530 F       1  UNL1       -0.2028
     34 C         143.9222  141.2159  164.4431 C.ar    1  UNL1        0.0261
     35 C         142.5977  141.6170  165.0216 C.ar    1  UNL1        0.1002
     36 N         141.8055  140.6353  165.8332 N.ar    1  UNL1       -0.2104
     37 O         139.6888  140.0546  167.2233 O.3     1  UNL1       -0.4575
     38 C         139.6972  140.1399  168.7208 C.3     1  UNL1        0.2378
     39 N         143.0428  138.9221  168.0592 N.3     1  UNL1       -0.3181
     40 C         142.3860  139.6577  169.1895 C.3     1  UNL1        0.1121
     41 C         142.8430  140.1936  170.5139 C.3     1  UNL1        0.1602
     42 O         141.4572  140.6980  170.7879 O.3     1  UNL1       -0.3495
     43 C         141.0002  140.1621  169.4636 C.3     1  UNL1        0.1753
     44 H         144.0270  138.7696  168.2792 H       1  UNL1        0.1190
     45 H         142.9669  139.4740  167.2048 H       1  UNL1        0.1190
@<TRIPOS>BOND
     1    40    39    1
     2    40    41    1
     3    41    42    1
     4    42    43    1
     5    43    38    1
     6    38    37    1
     7    37    26    1
     8    26    27   ar
     9    27    28   ar
    10    28    29   ar
    11    29    30   ar
    12    30    31   ar
    13    31    32   ar
    14    32    33    1
    15    32    34   ar
    16    34    25    1
    17    25    24    1
    18    24     1    1
    19     1     2    1
    20     2     3    1
    21     3     4    1
    22     4     9    1
    23     9    11    1
    24    11    12    1
    25    12    13   ar
    26    13    14   ar
    27    14    15   ar
    28    15    16   ar
    29    16    17   ar
    30    16    18    1
    31    18    19   am
    32    19    20    2
    33    19    21    1
    34    21    22    1
    35     4     5    1
    36     5     6    1
    37     4     7    1
    38     7     8    1
    39    34    35   ar
    40    35    36   ar
    41    43    40    1
    42    36    26   ar
    43    35    29   ar
    44     6     1    1
    45     8     1    1
    46    17    12   ar
    47    22    15    1
    48    39    44    1
    49    39    45    1
    50     9    10    1
    51    18    23    1
@<TRIPOS>MOLECULE
*****
 45 51 0 0 0
SMALL
GASTEIGER

@<TRIPOS>ATOM
      1 C         140.0428  137.7746  163.4403 C.3     1  UNL1        0.0932
      2 C         141.4787  137.6581  163.8581 C.3     1  UNL1        0.0286
      3 C         142.5716  137.8570  162.8501 C.3     1  UNL1        0.0193
      4 C         142.2285  138.1725  161.4243 C.3     1  UNL1        0.0700
      5 C         140.7926  138.2890  161.0066 C.3     1  UNL1        0.0193
      6 C         139.6997  138.0901  162.0146 C.3     1  UNL1        0.0286
      7 C         141.5952  138.0719  161.9408 C.3     1  UNL1        0.1562
      8 O         140.6070  137.8920  162.8523 O.3     1  UNL1       -0.3572
      9 N         143.3214  138.3715  160.4163 N.3     1  UNL1       -0.2926
     10 H         143.0601  137.8352  159.5890 H       1  UNL1        0.1236
     11 C         143.6650  139.7536  159.9457 C.3     1  UNL1        0.1152
     12 C         143.5253  140.9200  160.8786 C.ar    1  UNL1        0.0765
     13 C         144.4855  141.0876  162.0187 C.ar    1  UNL1        0.0193
     14 C         144.3458  142.2539  162.9516 C.ar    1  UNL1        0.0411
     15 C         143.2460  143.2525  162.7443 C.ar    1  UNL1        0.1708
     16 C         142.2858  143.0848  161.6042 C.ar    1  UNL1        0.1682
     17 N         142.4254  141.9186  160.6713 N.ar    1  UNL1       -0.2304
     18 N         141.1858  144.0835  161.3969 N.am    1  UNL1       -0.2639
     19 C         141.0462  145.2498  162.3298 C.2     1  UNL1        0.2718
     20 O         139.9462  146.2485  162.1225 O.2     1  UNL1       -0.2707
     21 C         142.0064  145.4174  163.4699 C.3     1  UNL1        0.2898
     22 O         143.1062  144.4188  163.6772 O.3     1  UNL1       -0.4628
     23 H         140.5556  143.9735  160.6486 H       1  UNL1        0.1565
     24 C         138.9498  137.5757  164.4483 C.3     1  UNL1        0.0320
     25 C         138.5792  138.6893  165.3823 C.3     1  UNL1        0.0327
     26 C         142.2814  140.0427  167.5531 C.ar    1  UNL1        0.2250
     27 C         142.8217  141.4234  167.3257 C.ar    1  UNL1        0.0593
     28 C         142.1278  142.3530  166.3747 C.ar    1  UNL1        0.0254
     29 C         140.8938  141.9018  165.6511 C.ar    1  UNL1        0.0990
     30 N         140.1999  142.8315  164.7001 N.ar    1  UNL1       -0.2400
     31 C         138.9659  142.3804  163.9765 C.ar    1  UNL1        0.1281
     32 C         138.4256  140.9996  164.2039 C.ar    1  UNL1        0.1566
     33 F         137.1916  140.5485  163.4804 F       1  UNL1       -0.2028
     34 C         139.1195  140.0700  165.1549 C.ar    1  UNL1        0.0261
     35 C         140.3535  140.5211  165.8785 C.ar    1  UNL1        0.1002
     36 N         141.0474  139.5916  166.8295 N.ar    1  UNL1       -0.2104
     37 O         142.9753  139.1130  168.5041 O.3     1  UNL1       -0.4575
     38 C         142.5860  139.0941  169.9526 C.3     1  UNL1        0.2378
     39 N         139.1244  140.0226  169.4341 N.3     1  UNL1       -0.3181
     40 C         140.2457  140.5414  170.2847 C.3     1  UNL1        0.1121
     41 C         140.3975  141.6595  171.2730 C.3     1  UNL1        0.1602
     42 O         141.8314  141.2749  171.4877 O.3     1  UNL1       -0.3495
     43 C         141.6795  140.1568  170.4995 C.3     1  UNL1        0.1753
     44 H         138.2891  140.5863  169.5919 H       1  UNL1        0.1190
     45 H         138.9313  139.0520  169.6810 H       1  UNL1        0.1190
@<TRIPOS>BOND
     1    40    39    1
     2    40    41    1
     3    41    42    1
     4    42    43    1
     5    43    38    1
     6    38    37    1
     7    37    26    1
     8    26    27   ar
     9    27    28   ar
    10    28    29   ar
    11    29    30   ar
    12    30    31   ar
    13    31    32   ar
    14    32    33    1
    15    32    34   ar
    16    34    25    1
    17    25    24    1
    18    24     1    1
    19     1     2    1
    20     2     3    1
    21     3     4    1
    22     4     9    1
    23     9    11    1
    24    11    12    1
    25    12    13   ar
    26    13    14   ar
    27    14    15   ar
    28    15    16   ar
    29    16    17   ar
    30    16    18    1
    31    18    19   am
    32    19    20    2
    33    19    21    1
    34    21    22    1
    35     4     5    1
    36     5     6    1
    37     4     7    1
    38     7     8    1
    39    34    35   ar
    40    35    36   ar
    41    43    40    1
    42    36    26   ar
    43    35    29   ar
    44     6     1    1
    45     8     1    1
    46    17    12   ar
    47    22    15    1
    48    39    44    1
    49    39    45    1
    50     9    10    1
    51    18    23    1
@<TRIPOS>MOLECULE
*****
 45 51 0 0 0
SMALL
GASTEIGER

@<TRIPOS>ATOM
      1 C         140.1425  138.7626  164.4178 C.3     1  UNL1        0.0932
      2 C         139.7161  139.5213  165.6395 C.3     1  UNL1        0.0286
      3 C         138.7227  140.6388  165.5197 C.3     1  UNL1        0.0193
      4 C         138.1557  140.9976  164.1781 C.3     1  UNL1        0.0700
      5 C         138.5821  140.2389  162.9564 C.3     1  UNL1        0.0193
      6 C         139.5755  139.1214  163.0763 C.3     1  UNL1        0.0286
      7 C         138.6972  140.3776  164.1940 C.3     1  UNL1        0.1562
      8 O         139.5955  139.3671  164.3024 O.3     1  UNL1       -0.3572
      9 N         137.1623  142.1151  164.0583 N.3     1  UNL1       -0.2926
     10 H         136.5438  142.0473  164.8665 H       1  UNL1        0.1236
     11 C         137.6368  143.5366  163.9942 C.3     1  UNL1        0.1152
     12 C         138.7046  143.9276  163.0159 C.ar    1  UNL1        0.0765
     13 C         139.9534  144.6035  163.4992 C.ar    1  UNL1        0.0193
     14 C         141.0212  144.9945  162.5210 C.ar    1  UNL1        0.0411
     15 C         140.8402  144.7096  161.0595 C.ar    1  UNL1        0.1708
     16 C         139.5913  144.0336  160.5763 C.ar    1  UNL1        0.1682
     17 N         138.5235  143.6427  161.5545 N.ar    1  UNL1       -0.2304
     18 N         139.4103  143.7487  159.1147 N.am    1  UNL1       -0.2639
     19 C         140.4781  144.1397  158.1365 C.2     1  UNL1        0.2718
     20 O         140.2971  143.8547  156.6749 O.2     1  UNL1       -0.2707
     21 C         141.7269  144.8156  158.6198 C.3     1  UNL1        0.2898
     22 O         141.9080  145.1005  160.0812 O.3     1  UNL1       -0.4628
     23 H         138.5907  143.3051  158.7975 H       1  UNL1        0.1565
     24 C         141.1359  137.6450  164.5376 C.3     1  UNL1        0.0320
     25 C         142.5905  137.9527  164.7363 C.3     1  UNL1        0.0327
     26 C         143.2833  141.9497  166.6841 C.ar    1  UNL1        0.2250
     27 C         143.9277  143.0603  165.9087 C.ar    1  UNL1        0.0593
     28 C         144.3412  142.8385  164.4840 C.ar    1  UNL1        0.0254
     29 C         144.1103  141.5062  163.8347 C.ar    1  UNL1        0.0990
     30 N         144.5237  141.2844  162.4099 N.ar    1  UNL1       -0.2400
     31 C         144.2928  139.9521  161.7607 C.ar    1  UNL1        0.1281
     32 C         143.6483  138.8415  162.5362 C.ar    1  UNL1        0.1566
     33 F         143.4174  137.5092  161.8869 F       1  UNL1       -0.2028
     34 C         143.2349  139.0633  163.9609 C.ar    1  UNL1        0.0261
     35 C         143.4658  140.3956  164.6101 C.ar    1  UNL1        0.1002
     36 N         143.0524  140.6174  166.0348 N.ar    1  UNL1       -0.2104
     37 O         142.8698  142.1714  168.1089 O.3     1  UNL1       -0.4575
     38 C         142.6278  140.9977  169.0109 C.3     1  UNL1        0.2378
     39 N         140.5811  142.1521  171.7664 N.3     1  UNL1       -0.3181
     40 C         140.3932  141.1787  170.6407 C.3     1  UNL1        0.1121
     41 C         139.2797  140.2803  170.1900 C.3     1  UNL1        0.1602
     42 O         140.1275  139.8022  169.0487 O.3     1  UNL1       -0.3495
     43 C         141.2409  140.7005  169.4993 C.3     1  UNL1        0.1753
     44 H         139.7346  142.1822  172.3346 H       1  UNL1        0.1190
     45 H         140.7685  143.0798  171.3860 H       1  UNL1        0.1190
@<TRIPOS>BOND
     1    40    39    1
     2    40    41    1
     3    41    42    1
     4    42    43    1
     5    43    38    1
     6    38    37    1
     7    37    26    1
     8    26    27   ar
     9    27    28   ar
    10    28    29   ar
    11    29    30   ar
    12    30    31   ar
    13    31    32   ar
    14    32    33    1
    15    32    34   ar
    16    34    25    1
    17    25    24    1
    18    24     1    1
    19     1     2    1
    20     2     3    1
    21     3     4    1
    22     4     9    1
    23     9    11    1
    24    11    12    1
    25    12    13   ar
    26    13    14   ar
    27    14    15   ar
    28    15    16   ar
    29    16    17   ar
    30    16    18    1
    31    18    19   am
    32    19    20    2
    33    19    21    1
    34    21    22    1
    35     4     5    1
    36     5     6    1
    37     4     7    1
    38     7     8    1
    39    34    35   ar
    40    35    36   ar
    41    43    40    1
    42    36    26   ar
    43    35    29   ar
    44     6     1    1
    45     8     1    1
    46    17    12   ar
    47    22    15    1
    48    39    44    1
    49    39    45    1
    50     9    10    1
    51    18    23    1
