@<TRIPOS>MOLECULE
*****
 33 37 0 0 0
SMALL
GASTEIGER

@<TRIPOS>ATOM
      1 N         141.6656  138.2613  164.4497 N.pl3   1  UNL1       -0.2801
      2 H         141.7119  137.3299  164.1343 H       1  UNL1        0.1552
      3 C         142.6479  139.2748  163.9420 C.ar    1  UNL1        0.2208
      4 N         144.0942  139.1761  164.3274 N.ar    1  UNL1       -0.2111
      5 C         145.0765  140.1896  163.8197 C.ar    1  UNL1        0.1147
      6 C         144.6126  141.3018  162.9264 C.ar    1  UNL1        0.0960
      7 CL        145.5950  142.3153  162.4187 Cl      1  UNL1       -0.0790
      8 C         143.1663  141.4005  162.5409 C.ar    1  UNL1        0.1138
      9 N         142.1840  140.3870  163.0487 N.ar    1  UNL1       -0.2111
     10 C         142.7024  142.5126  161.6477 C.ar    1  UNL1        0.1031
     11 C         143.1797  142.7789  160.2508 C.ar    1  UNL1        0.1196
     12 N         142.4520  143.9846  159.7343 N.ar    1  UNL1       -0.2248
     13 C         141.5250  144.4634  160.8119 C.ar    1  UNL1        0.1479
     14 C         140.5600  145.6103  160.8692 C.ar    1  UNL1        0.0374
     15 C         139.7497  145.8475  162.1090 C.ar    1  UNL1        0.0046
     16 C         139.9044  144.9378  163.2916 C.ar    1  UNL1        0.0191
     17 C         140.8694  143.7909  163.2343 C.ar    1  UNL1        0.0815
     18 N         141.6797  143.5537  161.9945 N.ar    1  UNL1       -0.2874
     19 C         139.1944  138.2164  165.2504 C.ar    1  UNL1        0.1521
     20 C         138.1415  138.6221  166.2388 C.ar    1  UNL1        0.0395
     21 C         138.5071  139.4782  167.4150 C.ar    1  UNL1        0.0177
     22 C         139.9254  139.9287  167.6028 C.ar    1  UNL1        0.0494
     23 C         140.9782  139.5230  166.6144 C.ar    1  UNL1        0.0323
     24 C         140.6128  138.6669  165.4381 C.ar    1  UNL1        0.0861
     25 N         140.2910  140.7848  168.7790 N.pl3   1  UNL1       -0.3046
     26 C         140.3834  142.2738  168.6230 C.3     1  UNL1        0.1079
     27 C         140.7490  143.1299  169.7992 C.3     1  UNL1        0.0903
     28 N         141.0222  142.4969  171.1314 N.3     1  UNL1       -0.2946
     29 C         140.9298  141.0079  171.2874 C.3     1  UNL1        0.0903
     30 C         140.5642  140.1519  170.1112 C.3     1  UNL1        0.1079
     31 H         140.3600  142.9038  171.7921 H       1  UNL1        0.1233
     32 C         138.5387  137.9946  162.7462 C.3     1  UNL1        0.2525
     33 O         138.8288  137.3603  164.0742 O.3     1  UNL1       -0.4702
@<TRIPOS>BOND
     1    32    33    1
     2    33    19    1
     3    19    20   ar
     4    20    21   ar
     5    21    22   ar
     6    22    25    1
     7    25    26    1
     8    26    27    1
     9    27    28    1
    10    28    29    1
    11    29    30    1
    12    22    23   ar
    13    23    24   ar
    14    24     1    1
    15     1     3    1
    16     3     4   ar
    17     4     5   ar
    18     5     6   ar
    19     6     7    1
    20     6     8   ar
    21     8    10    1
    22    10    11   ar
    23    11    12   ar
    24    12    13   ar
    25    13    14   ar
    26    14    15   ar
    27    15    16   ar
    28    16    17   ar
    29    17    18   ar
    30     8     9   ar
    31    24    19   ar
    32     9     3   ar
    33    30    25    1
    34    18    10   ar
    35    18    13   ar
    36    28    31    1
    37     1     2    1
@<TRIPOS>MOLECULE
*****
 33 37 0 0 0
SMALL
GASTEIGER

@<TRIPOS>ATOM
      1 N         137.6080  142.2365  162.1331 N.pl3   1  UNL1       -0.2801
      2 H         136.6921  142.3094  161.7794 H       1  UNL1        0.1552
      3 C         138.0260  141.0075  162.8847 C.ar    1  UNL1        0.2208
      4 N         138.0085  139.6705  162.2050 N.ar    1  UNL1       -0.2111
      5 C         138.4265  138.4415  162.9566 C.ar    1  UNL1        0.1147
      6 C         138.8621  138.5497  164.3879 C.ar    1  UNL1        0.0960
      7 CL        139.2801  137.3207  165.1396 Cl      1  UNL1       -0.0790
      8 C         138.8796  139.8868  165.0676 C.ar    1  UNL1        0.1138
      9 N         138.4616  141.1156  164.3160 N.ar    1  UNL1       -0.2111
     10 C         139.3151  139.9949  166.4989 C.ar    1  UNL1        0.1031
     11 C         138.5543  139.4971  167.6920 C.ar    1  UNL1        0.1196
     12 N         139.3569  139.8144  168.9189 N.ar    1  UNL1       -0.2248
     13 C         140.6137  140.5082  168.4840 C.ar    1  UNL1        0.1479
     14 C         141.7784  141.0527  169.2567 C.ar    1  UNL1        0.0374
     15 C         142.9172  141.7089  168.5338 C.ar    1  UNL1        0.0046
     16 C         142.8913  141.8205  167.0382 C.ar    1  UNL1        0.0191
     17 C         141.7267  141.2759  166.2655 C.ar    1  UNL1        0.0815
     18 N         140.5879  140.6198  166.9884 N.ar    1  UNL1       -0.2874
     19 C         138.7331  144.4287  162.9564 C.ar    1  UNL1        0.1521
     20 C         139.7106  145.5466  162.7434 C.ar    1  UNL1        0.0395
     21 C         140.5401  145.5898  161.4944 C.ar    1  UNL1        0.0177
     22 C         140.3923  144.5153  160.4583 C.ar    1  UNL1        0.0494
     23 C         139.4149  143.3975  160.6712 C.ar    1  UNL1        0.0323
     24 C         138.5853  143.3542  161.9202 C.ar    1  UNL1        0.0861
     25 N         141.2218  144.5585  159.2093 N.pl3   1  UNL1       -0.3046
     26 C         142.2415  143.4897  158.9489 C.3     1  UNL1        0.1079
     27 C         143.0710  143.5330  157.6998 C.3     1  UNL1        0.0903
     28 N         142.8808  144.6451  156.7113 N.3     1  UNL1       -0.2946
     29 C         141.8610  145.7139  156.9718 C.3     1  UNL1        0.0903
     30 C         141.0315  145.6705  158.2209 C.3     1  UNL1        0.1079
     31 H         142.6311  144.2100  155.8232 H       1  UNL1        0.1233
     32 C         138.4902  144.8334  165.5112 C.3     1  UNL1        0.2525
     33 O         137.9036  144.3855  164.2054 O.3     1  UNL1       -0.4702
@<TRIPOS>BOND
     1    32    33    1
     2    33    19    1
     3    19    20   ar
     4    20    21   ar
     5    21    22   ar
     6    22    25    1
     7    25    26    1
     8    26    27    1
     9    27    28    1
    10    28    29    1
    11    29    30    1
    12    22    23   ar
    13    23    24   ar
    14    24     1    1
    15     1     3    1
    16     3     4   ar
    17     4     5   ar
    18     5     6   ar
    19     6     7    1
    20     6     8   ar
    21     8    10    1
    22    10    11   ar
    23    11    12   ar
    24    12    13   ar
    25    13    14   ar
    26    14    15   ar
    27    15    16   ar
    28    16    17   ar
    29    17    18   ar
    30     8     9   ar
    31    24    19   ar
    32     9     3   ar
    33    30    25    1
    34    18    10   ar
    35    18    13   ar
    36    28    31    1
    37     1     2    1
@<TRIPOS>MOLECULE
*****
 33 37 0 0 0
SMALL
GASTEIGER

@<TRIPOS>ATOM
      1 N         141.8714  137.8869  164.5649 N.pl3   1  UNL1       -0.2801
      2 H         142.2153  136.9789  164.7271 H       1  UNL1        0.1552
      3 C         142.4287  138.7105  163.4419 C.ar    1  UNL1        0.2208
      4 N         143.0976  138.0388  162.2795 N.ar    1  UNL1       -0.2111
      5 C         143.6549  138.8623  161.1565 C.ar    1  UNL1        0.1147
      6 C         143.5433  140.3577  161.1959 C.ar    1  UNL1        0.0960
      7 CL        144.1006  141.1813  160.0730 Cl      1  UNL1       -0.0790
      8 C         142.8744  141.0295  162.3585 C.ar    1  UNL1        0.1138
      9 N         142.3171  140.2059  163.4814 N.ar    1  UNL1       -0.2111
     10 C         142.7628  142.5248  162.3980 C.ar    1  UNL1        0.1031
     11 C         143.9074  143.4937  162.4302 C.ar    1  UNL1        0.1196
     12 N         143.3391  144.8815  162.4643 N.ar    1  UNL1       -0.2248
     13 C         141.8433  144.7702  162.4531 C.ar    1  UNL1        0.1479
     14 C         140.7595  145.8069  162.4750 C.ar    1  UNL1        0.0374
     15 C         139.3195  145.3872  162.4559 C.ar    1  UNL1        0.0046
     16 C         138.9633  143.9307  162.4149 C.ar    1  UNL1        0.0191
     17 C         140.0471  142.8939  162.3930 C.ar    1  UNL1        0.0815
     18 N         141.4871  143.3137  162.4121 N.ar    1  UNL1       -0.2874
     19 C         139.3522  138.1322  165.1512 C.ar    1  UNL1        0.1521
     20 C         138.2708  138.6922  166.0271 C.ar    1  UNL1        0.0395
     21 C         138.6273  139.5668  167.1925 C.ar    1  UNL1        0.0177
     22 C         140.0650  139.8814  167.4820 C.ar    1  UNL1        0.0494
     23 C         141.1463  139.3215  166.6061 C.ar    1  UNL1        0.0323
     24 C         140.7900  138.4468  165.4407 C.ar    1  UNL1        0.0861
     25 N         140.4215  140.7560  168.6473 N.pl3   1  UNL1       -0.3046
     26 C         140.3514  142.2484  168.5141 C.3     1  UNL1        0.1079
     27 C         140.7078  143.1230  169.6794 C.3     1  UNL1        0.0903
     28 N         141.1343  142.5051  170.9781 N.3     1  UNL1       -0.2946
     29 C         141.2044  141.0126  171.1113 C.3     1  UNL1        0.0903
     30 C         140.8479  140.1381  169.9459 C.3     1  UNL1        0.1079
     31 H         140.4811  142.8338  171.6891 H       1  UNL1        0.1233
     32 C         138.7109  137.8712  162.6471 C.3     1  UNL1        0.2525
     33 O         138.9958  137.2576  163.9859 O.3     1  UNL1       -0.4702
@<TRIPOS>BOND
     1    32    33    1
     2    33    19    1
     3    19    20   ar
     4    20    21   ar
     5    21    22   ar
     6    22    25    1
     7    25    26    1
     8    26    27    1
     9    27    28    1
    10    28    29    1
    11    29    30    1
    12    22    23   ar
    13    23    24   ar
    14    24     1    1
    15     1     3    1
    16     3     4   ar
    17     4     5   ar
    18     5     6   ar
    19     6     7    1
    20     6     8   ar
    21     8    10    1
    22    10    11   ar
    23    11    12   ar
    24    12    13   ar
    25    13    14   ar
    26    14    15   ar
    27    15    16   ar
    28    16    17   ar
    29    17    18   ar
    30     8     9   ar
    31    24    19   ar
    32     9     3   ar
    33    30    25    1
    34    18    10   ar
    35    18    13   ar
    36    28    31    1
    37     1     2    1
@<TRIPOS>MOLECULE
*****
 33 37 0 0 0
SMALL
GASTEIGER

@<TRIPOS>ATOM
      1 N         137.7701  142.0751  162.3055 N.pl3   1  UNL1       -0.2801
      2 H         136.7971  142.1353  162.1681 H       1  UNL1        0.1552
      3 C         138.3744  140.8135  162.8470 C.ar    1  UNL1        0.2208
      4 N         137.9955  139.4873  162.2575 N.ar    1  UNL1       -0.2111
      5 C         138.5998  138.2257  162.7990 C.ar    1  UNL1        0.1147
      6 C         139.5830  138.2904  163.9300 C.ar    1  UNL1        0.0960
      7 CL        140.1873  137.0288  164.4715 Cl      1  UNL1       -0.0790
      8 C         139.9619  139.6167  164.5195 C.ar    1  UNL1        0.1138
      9 N         139.3576  140.8782  163.9780 N.ar    1  UNL1       -0.2111
     10 C         140.9451  139.6814  165.6506 C.ar    1  UNL1        0.1031
     11 C         142.4373  139.5907  165.5278 C.ar    1  UNL1        0.1196
     12 N         143.0231  139.7014  166.9042 N.ar    1  UNL1       -0.2248
     13 C         141.8930  139.8604  167.8776 C.ar    1  UNL1        0.1479
     14 C         141.8674  140.0149  169.3694 C.ar    1  UNL1        0.0374
     15 C         140.5575  140.1570  170.0864 C.ar    1  UNL1        0.0046
     16 C         139.2732  140.1447  169.3116 C.ar    1  UNL1        0.0191
     17 C         139.2988  139.9902  167.8198 C.ar    1  UNL1        0.0815
     18 N         140.6086  139.8481  167.1028 N.ar    1  UNL1       -0.2874
     19 C         138.7257  144.4143  162.9096 C.ar    1  UNL1        0.1521
     20 C         139.6039  145.5842  162.5774 C.ar    1  UNL1        0.0395
     21 C         140.4045  145.5847  161.3089 C.ar    1  UNL1        0.0177
     22 C         140.3270  144.4153  160.3727 C.ar    1  UNL1        0.0494
     23 C         139.4489  143.2455  160.7049 C.ar    1  UNL1        0.0323
     24 C         138.6482  143.2450  161.9734 C.ar    1  UNL1        0.0861
     25 N         141.1276  144.4158  159.1042 N.pl3   1  UNL1       -0.3046
     26 C         141.3515  145.6982  158.3591 C.3     1  UNL1        0.1079
     27 C         142.1522  145.6987  157.0906 C.3     1  UNL1        0.0903
     28 N         142.7288  144.4166  156.5673 N.3     1  UNL1       -0.2946
     29 C         142.5049  143.1342  157.3124 C.3     1  UNL1        0.0903
     30 C         141.7042  143.1338  158.5809 C.3     1  UNL1        0.1079
     31 H         143.7383  144.5503  156.5081 H       1  UNL1        0.1233
     32 C         138.5541  144.8669  165.4622 C.3     1  UNL1        0.2525
     33 O         137.9251  144.4138  164.1781 O.3     1  UNL1       -0.4702
@<TRIPOS>BOND
     1    32    33    1
     2    33    19    1
     3    19    20   ar
     4    20    21   ar
     5    21    22   ar
     6    22    25    1
     7    25    26    1
     8    26    27    1
     9    27    28    1
    10    28    29    1
    11    29    30    1
    12    22    23   ar
    13    23    24   ar
    14    24     1    1
    15     1     3    1
    16     3     4   ar
    17     4     5   ar
    18     5     6   ar
    19     6     7    1
    20     6     8   ar
    21     8    10    1
    22    10    11   ar
    23    11    12   ar
    24    12    13   ar
    25    13    14   ar
    26    14    15   ar
    27    15    16   ar
    28    16    17   ar
    29    17    18   ar
    30     8     9   ar
    31    24    19   ar
    32     9     3   ar
    33    30    25    1
    34    18    10   ar
    35    18    13   ar
    36    28    31    1
    37     1     2    1
@<TRIPOS>MOLECULE
*****
 33 37 0 0 0
SMALL
GASTEIGER

@<TRIPOS>ATOM
      1 N         139.5732  142.8804  164.3052 N.pl3   1  UNL1       -0.2801
      2 H         138.9020  143.5977  164.2411 H       1  UNL1        0.1552
      3 C         140.7802  142.9011  163.4149 C.ar    1  UNL1        0.2208
      4 N         141.5353  144.1800  163.2047 N.ar    1  UNL1       -0.2111
      5 C         142.7423  144.2007  162.3144 C.ar    1  UNL1        0.1147
      6 C         143.1942  142.9424  161.6343 C.ar    1  UNL1        0.0960
      7 CL        144.4013  142.9630  160.7439 Cl      1  UNL1       -0.0790
      8 C         142.4391  141.6634  161.8445 C.ar    1  UNL1        0.1138
      9 N         141.2322  141.6428  162.7348 N.ar    1  UNL1       -0.2111
     10 C         142.8910  140.4051  161.1644 C.ar    1  UNL1        0.1031
     11 C         144.0391  139.5376  161.5878 C.ar    1  UNL1        0.1196
     12 N         144.1319  138.3898  160.6266 N.ar    1  UNL1       -0.2248
     13 C         143.0411  138.5480  159.6091 C.ar    1  UNL1        0.1479
     14 C         142.6471  137.7188  158.4229 C.ar    1  UNL1        0.0374
     15 C         141.4863  138.1351  157.5690 C.ar    1  UNL1        0.0046
     16 C         140.7194  139.3807  157.9014 C.ar    1  UNL1        0.0191
     17 C         141.1134  140.2099  159.0876 C.ar    1  UNL1        0.0815
     18 N         142.2742  139.7936  159.9415 N.ar    1  UNL1       -0.2874
     19 C         138.4737  140.6229  164.9719 C.ar    1  UNL1        0.1521
     20 C         138.2895  139.5094  165.9601 C.ar    1  UNL1        0.0395
     21 C         139.0205  139.5401  167.2695 C.ar    1  UNL1        0.0177
     22 C         139.9358  140.6842  167.5908 C.ar    1  UNL1        0.0494
     23 C         140.1200  141.7976  166.6027 C.ar    1  UNL1        0.0323
     24 C         139.3890  141.7670  165.2933 C.ar    1  UNL1        0.0861
     25 N         140.6668  140.7149  168.9003 N.pl3   1  UNL1       -0.3046
     26 C         141.8758  139.8508  169.1047 C.3     1  UNL1        0.1079
     27 C         142.6068  139.8815  170.4142 C.3     1  UNL1        0.0903
     28 N         142.1288  140.7763  171.5191 N.3     1  UNL1       -0.2946
     29 C         140.9199  141.6404  171.3147 C.3     1  UNL1        0.0903
     30 C         140.1889  141.6097  170.0052 C.3     1  UNL1        0.1079
     31 H         142.9021  141.4011  171.7474 H       1  UNL1        0.1233
     32 C         138.1047  139.5711  162.6251 C.3     1  UNL1        0.2525
     33 O         137.7426  140.5922  163.6625 O.3     1  UNL1       -0.4702
@<TRIPOS>BOND
     1    32    33    1
     2    33    19    1
     3    19    20   ar
     4    20    21   ar
     5    21    22   ar
     6    22    25    1
     7    25    26    1
     8    26    27    1
     9    27    28    1
    10    28    29    1
    11    29    30    1
    12    22    23   ar
    13    23    24   ar
    14    24     1    1
    15     1     3    1
    16     3     4   ar
    17     4     5   ar
    18     5     6   ar
    19     6     7    1
    20     6     8   ar
    21     8    10    1
    22    10    11   ar
    23    11    12   ar
    24    12    13   ar
    25    13    14   ar
    26    14    15   ar
    27    15    16   ar
    28    16    17   ar
    29    17    18   ar
    30     8     9   ar
    31    24    19   ar
    32     9     3   ar
    33    30    25    1
    34    18    10   ar
    35    18    13   ar
    36    28    31    1
    37     1     2    1
@<TRIPOS>MOLECULE
*****
 33 37 0 0 0
SMALL
GASTEIGER

@<TRIPOS>ATOM
      1 N         140.8831  141.0000  163.7577 N.pl3   1  UNL1       -0.2801
      2 H         141.5414  140.4408  163.2853 H       1  UNL1        0.1552
      3 C         140.5550  142.3698  163.2420 C.ar    1  UNL1        0.2208
      4 N         140.1512  143.4538  164.1968 N.ar    1  UNL1       -0.2111
      5 C         139.8231  144.8236  163.6811 C.ar    1  UNL1        0.1147
      6 C         139.8988  145.1094  162.2105 C.ar    1  UNL1        0.0960
      7 CL        139.5708  146.4792  161.6948 Cl      1  UNL1       -0.0790
      8 C         140.3027  144.0252  161.2556 C.ar    1  UNL1        0.1138
      9 N         140.6307  142.6555  161.7714 N.ar    1  UNL1       -0.2111
     10 C         140.3784  144.3110  159.7850 C.ar    1  UNL1        0.1031
     11 C         141.3163  145.2753  159.1214 C.ar    1  UNL1        0.1196
     12 N         141.0471  145.2429  157.6461 N.ar    1  UNL1       -0.2248
     13 C         139.9427  144.2586  157.3980 C.ar    1  UNL1        0.1479
     14 C         139.2601  143.8123  156.1391 C.ar    1  UNL1        0.0374
     15 C         138.1641  142.7901  156.2021 C.ar    1  UNL1        0.0046
     16 C         137.7508  142.2142  157.5240 C.ar    1  UNL1        0.0191
     17 C         138.4335  142.6604  158.7829 C.ar    1  UNL1        0.0815
     18 N         139.5294  143.6826  158.7199 N.ar    1  UNL1       -0.2874
     19 C         138.8861  139.7817  164.8880 C.ar    1  UNL1        0.1521
     20 C         138.2113  139.2639  166.1236 C.ar    1  UNL1        0.0395
     21 C         138.8587  139.4466  167.4643 C.ar    1  UNL1        0.0177
     22 C         140.1810  140.1470  167.5695 C.ar    1  UNL1        0.0494
     23 C         140.8557  140.6648  166.3339 C.ar    1  UNL1        0.0323
     24 C         140.2083  140.4822  164.9932 C.ar    1  UNL1        0.0861
     25 N         140.8284  140.3297  168.9101 N.pl3   1  UNL1       -0.3046
     26 C         142.1878  139.7519  169.1715 C.3     1  UNL1        0.1079
     27 C         142.8353  139.9346  170.5122 C.3     1  UNL1        0.0903
     28 N         142.1233  140.6951  171.5915 N.3     1  UNL1       -0.2946
     29 C         140.7639  141.2728  171.3301 C.3     1  UNL1        0.0903
     30 C         140.1165  141.0901  169.9894 C.3     1  UNL1        0.1079
     31 H         142.7289  141.4734  171.8518 H       1  UNL1        0.1233
     32 C         138.4765  138.3418  162.7646 C.3     1  UNL1        0.2525
     33 O         138.2386  139.5990  163.5473 O.3     1  UNL1       -0.4702
@<TRIPOS>BOND
     1    32    33    1
     2    33    19    1
     3    19    20   ar
     4    20    21   ar
     5    21    22   ar
     6    22    25    1
     7    25    26    1
     8    26    27    1
     9    27    28    1
    10    28    29    1
    11    29    30    1
    12    22    23   ar
    13    23    24   ar
    14    24     1    1
    15     1     3    1
    16     3     4   ar
    17     4     5   ar
    18     5     6   ar
    19     6     7    1
    20     6     8   ar
    21     8    10    1
    22    10    11   ar
    23    11    12   ar
    24    12    13   ar
    25    13    14   ar
    26    14    15   ar
    27    15    16   ar
    28    16    17   ar
    29    17    18   ar
    30     8     9   ar
    31    24    19   ar
    32     9     3   ar
    33    30    25    1
    34    18    10   ar
    35    18    13   ar
    36    28    31    1
    37     1     2    1
@<TRIPOS>MOLECULE
*****
 33 37 0 0 0
SMALL
GASTEIGER

@<TRIPOS>ATOM
      1 N         141.7354  139.0855  164.4368 N.pl3   1  UNL1       -0.2801
      2 H         141.9566  138.1971  164.0748 H       1  UNL1        0.1552
      3 C         142.4439  140.3031  163.9216 C.ar    1  UNL1        0.2208
      4 N         143.9247  140.4463  164.1131 N.ar    1  UNL1       -0.2111
      5 C         144.6333  141.6639  163.5979 C.ar    1  UNL1        0.1147
      6 C         143.8611  142.7381  162.8911 C.ar    1  UNL1        0.0960
      7 CL        144.5697  143.9557  162.3758 Cl      1  UNL1       -0.0790
      8 C         142.3802  142.5949  162.6995 C.ar    1  UNL1        0.1138
      9 N         141.6717  141.3774  163.2147 N.ar    1  UNL1       -0.2111
     10 C         141.6080  143.6692  161.9926 C.ar    1  UNL1        0.1031
     11 C         140.6445  144.6264  162.6293 C.ar    1  UNL1        0.1196
     12 N         140.1047  145.5237  161.5552 N.ar    1  UNL1       -0.2248
     13 C         140.7346  145.1209  160.2548 C.ar    1  UNL1        0.1479
     14 C         140.5823  145.6498  158.8595 C.ar    1  UNL1        0.0374
     15 C         141.3590  145.0325  157.7345 C.ar    1  UNL1        0.0046
     16 C         142.2881  143.8863  158.0048 C.ar    1  UNL1        0.0191
     17 C         142.4405  143.3575  159.4002 C.ar    1  UNL1        0.0815
     18 N         141.6637  143.9748  160.5252 N.ar    1  UNL1       -0.2874
     19 C         139.3112  138.6756  165.2766 C.ar    1  UNL1        0.1521
     20 C         138.2655  138.8115  166.3436 C.ar    1  UNL1        0.0395
     21 C         138.5986  139.4934  167.6375 C.ar    1  UNL1        0.0177
     22 C         139.9771  140.0393  167.8645 C.ar    1  UNL1        0.0494
     23 C         141.0227  139.9033  166.7976 C.ar    1  UNL1        0.0323
     24 C         140.6898  139.2215  165.5036 C.ar    1  UNL1        0.0861
     25 N         140.3101  140.7212  169.1584 N.pl3   1  UNL1       -0.3046
     26 C         141.3333  140.1246  170.0789 C.3     1  UNL1        0.1079
     27 C         141.6663  140.8065  171.3728 C.3     1  UNL1        0.0903
     28 N         140.9761  142.0850  171.7461 N.3     1  UNL1       -0.2946
     29 C         139.9529  142.6815  170.8256 C.3     1  UNL1        0.0903
     30 C         139.6200  141.9995  169.5317 C.3     1  UNL1        0.1079
     31 H         141.7049  142.7875  171.8710 H       1  UNL1        0.1233
     32 C         138.4729  138.7961  162.8205 C.3     1  UNL1        0.2525
     33 O         138.9782  137.9937  163.9827 O.3     1  UNL1       -0.4702
@<TRIPOS>BOND
     1    32    33    1
     2    33    19    1
     3    19    20   ar
     4    20    21   ar
     5    21    22   ar
     6    22    25    1
     7    25    26    1
     8    26    27    1
     9    27    28    1
    10    28    29    1
    11    29    30    1
    12    22    23   ar
    13    23    24   ar
    14    24     1    1
    15     1     3    1
    16     3     4   ar
    17     4     5   ar
    18     5     6   ar
    19     6     7    1
    20     6     8   ar
    21     8    10    1
    22    10    11   ar
    23    11    12   ar
    24    12    13   ar
    25    13    14   ar
    26    14    15   ar
    27    15    16   ar
    28    16    17   ar
    29    17    18   ar
    30     8     9   ar
    31    24    19   ar
    32     9     3   ar
    33    30    25    1
    34    18    10   ar
    35    18    13   ar
    36    28    31    1
    37     1     2    1
@<TRIPOS>MOLECULE
*****
 33 37 0 0 0
SMALL
GASTEIGER

@<TRIPOS>ATOM
      1 N         144.2796  143.0545  162.6842 N.pl3   1  UNL1       -0.2801
      2 H         144.6778  143.8824  163.0382 H       1  UNL1        0.1552
      3 C         144.1275  141.8559  163.5731 C.ar    1  UNL1        0.2208
      4 N         145.1077  140.7242  163.4803 N.ar    1  UNL1       -0.2111
      5 C         144.9556  139.5256  164.3691 C.ar    1  UNL1        0.1147
      6 C         143.8234  139.4586  165.3508 C.ar    1  UNL1        0.0960
      7 CL        143.6713  138.2599  166.2396 Cl      1  UNL1       -0.0790
      8 C         142.8432  140.5903  165.4436 C.ar    1  UNL1        0.1138
      9 N         142.9953  141.7889  164.5547 N.ar    1  UNL1       -0.2111
     10 C         141.7110  140.5233  166.4252 C.ar    1  UNL1        0.1031
     11 C         141.6161  141.2835  167.7149 C.ar    1  UNL1        0.1196
     12 N         140.3214  140.9144  168.3763 N.ar    1  UNL1       -0.2248
     13 C         139.6161  139.9261  167.4954 C.ar    1  UNL1        0.1479
     14 C         138.3028  139.2151  167.6355 C.ar    1  UNL1        0.0374
     15 C         137.8483  138.2623  166.5697 C.ar    1  UNL1        0.0046
     16 C         138.7072  138.0206  165.3639 C.ar    1  UNL1        0.0191
     17 C         140.0204  138.7316  165.2238 C.ar    1  UNL1        0.0815
     18 N         140.4749  139.6844  166.2896 N.ar    1  UNL1       -0.2874
     19 C         142.4102  143.3438  160.9033 C.ar    1  UNL1        0.1521
     20 C         141.9557  143.2811  159.4751 C.ar    1  UNL1        0.0395
     21 C         142.9159  142.8665  158.3999 C.ar    1  UNL1        0.0177
     22 C         144.3307  142.5146  158.7528 C.ar    1  UNL1        0.0494
     23 C         144.7852  142.5773  160.1809 C.ar    1  UNL1        0.0323
     24 C         143.8250  142.9919  161.2562 C.ar    1  UNL1        0.0861
     25 N         145.2910  142.1000  157.6777 N.pl3   1  UNL1       -0.3046
     26 C         144.9454  140.9644  156.7605 C.3     1  UNL1        0.1079
     27 C         145.9057  140.5498  155.6854 C.3     1  UNL1        0.0903
     28 N         147.2115  141.2709  155.5274 N.3     1  UNL1       -0.2946
     29 C         147.5571  142.4064  156.4445 C.3     1  UNL1        0.0903
     30 C         146.5968  142.8210  157.5197 C.3     1  UNL1        0.1079
     31 H         147.2292  141.6433  154.5780 H       1  UNL1        0.1233
     32 C         141.2074  145.2141  162.2468 C.3     1  UNL1        0.2525
     33 O         141.4499  143.7584  161.9785 O.3     1  UNL1       -0.4702
@<TRIPOS>BOND
     1    32    33    1
     2    33    19    1
     3    19    20   ar
     4    20    21   ar
     5    21    22   ar
     6    22    25    1
     7    25    26    1
     8    26    27    1
     9    27    28    1
    10    28    29    1
    11    29    30    1
    12    22    23   ar
    13    23    24   ar
    14    24     1    1
    15     1     3    1
    16     3     4   ar
    17     4     5   ar
    18     5     6   ar
    19     6     7    1
    20     6     8   ar
    21     8    10    1
    22    10    11   ar
    23    11    12   ar
    24    12    13   ar
    25    13    14   ar
    26    14    15   ar
    27    15    16   ar
    28    16    17   ar
    29    17    18   ar
    30     8     9   ar
    31    24    19   ar
    32     9     3   ar
    33    30    25    1
    34    18    10   ar
    35    18    13   ar
    36    28    31    1
    37     1     2    1
@<TRIPOS>MOLECULE
*****
 33 37 0 0 0
SMALL
GASTEIGER

@<TRIPOS>ATOM
      1 N         144.5481  138.8771  162.5542 N.pl3   1  UNL1       -0.2801
      2 H         145.3998  138.3873  162.6175 H       1  UNL1        0.1552
      3 C         143.7139  139.0925  163.7820 C.ar    1  UNL1        0.2208
      4 N         144.2434  138.6945  165.1279 N.ar    1  UNL1       -0.2111
      5 C         143.4091  138.9098  166.3557 C.ar    1  UNL1        0.1147
      6 C         142.0453  139.5232  166.2377 C.ar    1  UNL1        0.0960
      7 CL        141.2110  139.7385  167.4655 Cl      1  UNL1       -0.0790
      8 C         141.5158  139.9211  164.8918 C.ar    1  UNL1        0.1138
      9 N         142.3501  139.7058  163.6641 N.ar    1  UNL1       -0.2111
     10 C         140.1520  140.5344  164.7738 C.ar    1  UNL1        0.1031
     11 C         138.8545  139.7876  164.6799 C.ar    1  UNL1        0.1196
     12 N         137.7468  140.7938  164.5771 N.ar    1  UNL1       -0.2248
     13 C         138.3597  142.1625  164.6075 C.ar    1  UNL1        0.1479
     14 C         137.7563  143.5341  164.5402 C.ar    1  UNL1        0.0374
     15 C         138.6394  144.7455  164.5944 C.ar    1  UNL1        0.0046
     16 C         140.1258  144.5852  164.7160 C.ar    1  UNL1        0.0191
     17 C         140.7292  143.2136  164.7833 C.ar    1  UNL1        0.0815
     18 N         139.8462  142.0023  164.7291 N.ar    1  UNL1       -0.2874
     19 C         144.3891  140.8246  160.8419 C.ar    1  UNL1        0.1521
     20 C         143.9257  141.3555  159.5176 C.ar    1  UNL1        0.0395
     21 C         143.1583  140.4697  158.5815 C.ar    1  UNL1        0.0177
     22 C         142.8541  139.0531  158.9696 C.ar    1  UNL1        0.0494
     23 C         143.3174  138.5222  160.2938 C.ar    1  UNL1        0.0323
     24 C         144.0849  139.4080  161.2300 C.ar    1  UNL1        0.0861
     25 N         142.0866  138.1672  158.0335 N.pl3   1  UNL1       -0.3046
     26 C         142.7787  137.0326  157.3380 C.3     1  UNL1        0.1079
     27 C         142.0112  136.1468  156.4019 C.3     1  UNL1        0.0903
     28 N         140.5516  136.3957  156.1613 N.3     1  UNL1       -0.2946
     29 C         139.8596  137.5303  156.8568 C.3     1  UNL1        0.0903
     30 C         140.6271  138.4161  157.7929 C.3     1  UNL1        0.1079
     31 H         140.0596  135.5429  156.4280 H       1  UNL1        0.1233
     32 C         144.5341  142.9736  162.2949 C.3     1  UNL1        0.2525
     33 O         145.1565  141.7105  161.7781 O.3     1  UNL1       -0.4702
@<TRIPOS>BOND
     1    32    33    1
     2    33    19    1
     3    19    20   ar
     4    20    21   ar
     5    21    22   ar
     6    22    25    1
     7    25    26    1
     8    26    27    1
     9    27    28    1
    10    28    29    1
    11    29    30    1
    12    22    23   ar
    13    23    24   ar
    14    24     1    1
    15     1     3    1
    16     3     4   ar
    17     4     5   ar
    18     5     6   ar
    19     6     7    1
    20     6     8   ar
    21     8    10    1
    22    10    11   ar
    23    11    12   ar
    24    12    13   ar
    25    13    14   ar
    26    14    15   ar
    27    15    16   ar
    28    16    17   ar
    29    17    18   ar
    30     8     9   ar
    31    24    19   ar
    32     9     3   ar
    33    30    25    1
    34    18    10   ar
    35    18    13   ar
    36    28    31    1
    37     1     2    1
