@<TRIPOS>MOLECULE
*****
 30 34 0 0 0
SMALL
GASTEIGER

@<TRIPOS>ATOM
      1 C         143.3996  142.0675  159.7643 C.ar    1  UNL1        0.1098
      2 C         143.1743  141.1389  160.9206 C.ar    1  UNL1        0.0891
      3 N         142.2215  141.5205  162.0144 N.ar    1  UNL1       -0.2900
      4 C         141.4938  142.8308  161.9519 C.ar    1  UNL1        0.1507
      5 N         140.5410  143.2124  163.0457 N.ar    1  UNL1       -0.2263
      6 C         139.8134  144.5225  162.9832 C.ar    1  UNL1        0.1005
      7 C         140.0386  145.4511  161.8269 C.ar    1  UNL1        0.0209
      8 C         140.9914  145.0695  160.7331 C.ar    1  UNL1        0.0078
      9 C         141.7190  143.7594  160.7956 C.ar    1  UNL1        0.0736
     10 C         142.6719  143.3777  159.7018 C.ar    1  UNL1        0.2043
     11 O         142.8971  144.3063  158.5455 O.2     1  UNL1       -0.2863
     12 C         141.9963  140.5920  163.1707 C.ar    1  UNL1        0.0654
     13 C         141.3888  139.2401  162.9397 C.ar    1  UNL1        0.0176
     14 C         141.1636  138.3115  164.0959 C.ar    1  UNL1        0.0015
     15 C         141.5459  138.7348  165.4832 C.ar    1  UNL1        0.0001
     16 C         142.1534  140.0867  165.7143 C.ar    1  UNL1        0.0029
     17 C         142.3786  141.0153  164.5580 C.ar    1  UNL1        0.0176
     18 C         142.5357  140.5100  167.1016 C.ar    1  UNL1        0.0192
     19 C         142.8548  141.9478  167.3859 C.ar    1  UNL1        0.0031
     20 C         143.2371  142.3710  168.7732 C.ar    1  UNL1        0.0207
     21 C         143.3003  141.3565  169.8763 C.ar    1  UNL1        0.0989
     22 N         142.9812  139.9186  169.5920 N.ar    1  UNL1       -0.2423
     23 C         142.5989  139.4954  168.2046 C.ar    1  UNL1        0.0988
     24 O         144.4315  140.2612  158.2079 O.2     1  UNL1       -0.2700
     25 C         144.3525  141.6859  158.6704 C.2     1  UNL1        0.2504
     26 N         145.2263  142.7289  158.0392 N.am    1  UNL1       -0.3024
     27 H         145.1744  143.6640  158.3429 H       1  UNL1        0.1497
     28 C         146.1792  142.3474  156.9455 C.3     1  UNL1        0.0720
     29 C         146.4433  141.6891  155.6238 C.3     1  UNL1        0.0213
     30 C         147.5654  142.3447  156.3726 C.3     1  UNL1        0.0213
@<TRIPOS>BOND
     1    24    25    2
     2    25    26   am
     3    26    28    1
     4    28    29    1
     5    29    30    1
     6    25     1    1
     7     1     2   ar
     8     2     3   ar
     9     3    12    1
    10    12    13   ar
    11    13    14   ar
    12    14    15   ar
    13    15    16   ar
    14    16    18    1
    15    18    19   ar
    16    19    20   ar
    17    20    21   ar
    18    21    22   ar
    19    22    23   ar
    20    16    17   ar
    21     3     4   ar
    22     4     5   ar
    23     5     6   ar
    24     6     7   ar
    25     7     8   ar
    26     8     9   ar
    27     9    10   ar
    28    10    11    2
    29    30    28    1
    30    10     1   ar
    31    17    12   ar
    32     9     4   ar
    33    23    18   ar
    34    26    27    1
@<TRIPOS>MOLECULE
*****
 30 34 0 0 0
SMALL
GASTEIGER

@<TRIPOS>ATOM
      1 C         139.7544  141.0441  161.1337 C.ar    1  UNL1        0.1098
      2 C         139.1993  140.7078  162.4861 C.ar    1  UNL1        0.0891
      3 N         140.0992  140.1504  163.5487 N.ar    1  UNL1       -0.2900
      4 C         141.5543  139.9292  163.2591 C.ar    1  UNL1        0.1507
      5 N         142.4543  139.3718  164.3218 N.ar    1  UNL1       -0.2263
      6 C         143.9093  139.1506  164.0322 C.ar    1  UNL1        0.1005
      7 C         144.4644  139.4869  162.6798 C.ar    1  UNL1        0.0209
      8 C         143.5644  140.0443  161.6171 C.ar    1  UNL1        0.0078
      9 C         142.1094  140.2655  161.9068 C.ar    1  UNL1        0.0736
     10 C         141.2094  140.8229  160.8441 C.ar    1  UNL1        0.2043
     11 O         141.7645  141.1591  159.4917 O.2     1  UNL1       -0.2863
     12 C         139.5441  139.8142  164.9011 C.ar    1  UNL1        0.0654
     13 C         138.5116  138.7351  165.0409 C.ar    1  UNL1        0.0176
     14 C         137.9566  138.3989  166.3932 C.ar    1  UNL1        0.0015
     15 C         138.4340  139.1417  167.6058 C.ar    1  UNL1        0.0001
     16 C         139.4665  140.2208  167.4660 C.ar    1  UNL1        0.0029
     17 C         140.0216  140.5570  166.1137 C.ar    1  UNL1        0.0176
     18 C         139.9440  140.9636  168.6785 C.ar    1  UNL1        0.0192
     19 C         140.4468  142.3706  168.5464 C.ar    1  UNL1        0.0031
     20 C         140.9242  143.1134  169.7590 C.ar    1  UNL1        0.0207
     21 C         140.8988  142.4491  171.1037 C.ar    1  UNL1        0.0989
     22 N         140.3960  141.0421  171.2358 N.ar    1  UNL1       -0.2423
     23 C         139.9186  140.2993  170.0232 C.ar    1  UNL1        0.0988
     24 O         138.1134  142.8832  160.3122 O.2     1  UNL1       -0.2700
     25 C         138.8543  141.6015  160.0710 C.2     1  UNL1        0.2504
     26 N         138.6953  140.8772  158.7671 N.am    1  UNL1       -0.3024
     27 H         139.1817  140.0360  158.6088 H       1  UNL1        0.1497
     28 C         137.7954  141.4345  157.7044 C.3     1  UNL1        0.0720
     29 C         137.3816  142.5712  156.8175 C.3     1  UNL1        0.0213
     30 C         136.6503  141.2633  156.7508 C.3     1  UNL1        0.0213
@<TRIPOS>BOND
     1    24    25    2
     2    25    26   am
     3    26    28    1
     4    28    29    1
     5    29    30    1
     6    25     1    1
     7     1     2   ar
     8     2     3   ar
     9     3    12    1
    10    12    13   ar
    11    13    14   ar
    12    14    15   ar
    13    15    16   ar
    14    16    18    1
    15    18    19   ar
    16    19    20   ar
    17    20    21   ar
    18    21    22   ar
    19    22    23   ar
    20    16    17   ar
    21     3     4   ar
    22     4     5   ar
    23     5     6   ar
    24     6     7   ar
    25     7     8   ar
    26     8     9   ar
    27     9    10   ar
    28    10    11    2
    29    30    28    1
    30    10     1   ar
    31    17    12   ar
    32     9     4   ar
    33    23    18   ar
    34    26    27    1
@<TRIPOS>MOLECULE
*****
 30 34 0 0 0
SMALL
GASTEIGER

@<TRIPOS>ATOM
      1 C         143.2670  142.5511  159.9416 C.ar    1  UNL1        0.1098
      2 C         143.2297  141.9570  161.3185 C.ar    1  UNL1        0.0891
      3 N         142.3322  142.5467  162.3657 N.ar    1  UNL1       -0.2900
      4 C         141.4720  143.7306  162.0361 C.ar    1  UNL1        0.1507
      5 N         140.5746  144.3203  163.0833 N.ar    1  UNL1       -0.2263
      6 C         139.7144  145.5041  162.7537 C.ar    1  UNL1        0.1005
      7 C         139.7517  146.0982  161.3768 C.ar    1  UNL1        0.0209
      8 C         140.6492  145.5085  160.3296 C.ar    1  UNL1        0.0078
      9 C         141.5093  144.3247  160.6593 C.ar    1  UNL1        0.0736
     10 C         142.4069  143.7349  159.6120 C.ar    1  UNL1        0.2043
     11 O         142.4442  144.3289  158.2352 O.2     1  UNL1       -0.2863
     12 C         142.2949  141.9527  163.7425 C.ar    1  UNL1        0.0654
     13 C         143.3800  142.2732  164.7273 C.ar    1  UNL1        0.0176
     14 C         143.3427  141.6792  166.1042 C.ar    1  UNL1        0.0015
     15 C         142.2203  140.7646  166.4962 C.ar    1  UNL1        0.0001
     16 C         141.1352  140.4440  165.5114 C.ar    1  UNL1        0.0029
     17 C         141.1725  141.0380  164.1346 C.ar    1  UNL1        0.0176
     18 C         140.0128  139.5293  165.9034 C.ar    1  UNL1        0.0192
     19 C         139.6690  138.3515  165.0407 C.ar    1  UNL1        0.0031
     20 C         138.5466  137.4368  165.4327 C.ar    1  UNL1        0.0207
     21 C         137.7681  137.7001  166.6876 C.ar    1  UNL1        0.0989
     22 N         138.1119  138.8779  167.5504 N.ar    1  UNL1       -0.2423
     23 C         139.2343  139.7926  167.1583 C.ar    1  UNL1        0.0988
     24 O         144.2133  140.4749  158.6991 O.2     1  UNL1       -0.2700
     25 C         144.1646  141.9613  158.8944 C.2     1  UNL1        0.2504
     26 N         145.0133  142.8579  158.0425 N.am    1  UNL1       -0.3024
     27 H         144.9812  143.8335  158.1707 H       1  UNL1        0.1497
     28 C         145.9108  142.2682  156.9953 C.3     1  UNL1        0.0720
     29 C         146.1324  141.3050  155.8670 C.3     1  UNL1        0.0213
     30 C         147.2437  142.2099  156.3098 C.3     1  UNL1        0.0213
@<TRIPOS>BOND
     1    24    25    2
     2    25    26   am
     3    26    28    1
     4    28    29    1
     5    29    30    1
     6    25     1    1
     7     1     2   ar
     8     2     3   ar
     9     3    12    1
    10    12    13   ar
    11    13    14   ar
    12    14    15   ar
    13    15    16   ar
    14    16    18    1
    15    18    19   ar
    16    19    20   ar
    17    20    21   ar
    18    21    22   ar
    19    22    23   ar
    20    16    17   ar
    21     3     4   ar
    22     4     5   ar
    23     5     6   ar
    24     6     7   ar
    25     7     8   ar
    26     8     9   ar
    27     9    10   ar
    28    10    11    2
    29    30    28    1
    30    10     1   ar
    31    17    12   ar
    32     9     4   ar
    33    23    18   ar
    34    26    27    1
@<TRIPOS>MOLECULE
*****
 30 34 0 0 0
SMALL
GASTEIGER

@<TRIPOS>ATOM
      1 C         141.1303  142.9402  160.8075 C.ar    1  UNL1        0.1098
      2 C         140.3856  142.2887  161.9349 C.ar    1  UNL1        0.0891
      3 N         141.1408  141.6558  163.0658 N.ar    1  UNL1       -0.2900
      4 C         142.6408  141.6745  163.0695 C.ar    1  UNL1        0.1507
      5 N         143.3960  141.0416  164.2004 N.ar    1  UNL1       -0.2263
      6 C         144.8958  141.0603  164.2040 C.ar    1  UNL1        0.1005
      7 C         145.6405  141.7119  163.0766 C.ar    1  UNL1        0.0209
      8 C         144.8852  142.3448  161.9457 C.ar    1  UNL1        0.0078
      9 C         143.3854  142.3260  161.9421 C.ar    1  UNL1        0.0736
     10 C         142.6301  142.9590  160.8111 C.ar    1  UNL1        0.2043
     11 O         143.3747  143.6105  159.6838 O.2     1  UNL1       -0.2863
     12 C         140.3962  141.0042  164.1932 C.ar    1  UNL1        0.0654
     13 C         139.4963  139.8354  163.9212 C.ar    1  UNL1        0.0176
     14 C         138.7517  139.1838  165.0485 C.ar    1  UNL1        0.0015
     15 C         138.9069  139.7010  166.4479 C.ar    1  UNL1        0.0001
     16 C         139.8068  140.8699  166.7200 C.ar    1  UNL1        0.0029
     17 C         140.5515  141.5215  165.5927 C.ar    1  UNL1        0.0176
     18 C         139.9621  141.3871  168.1194 C.ar    1  UNL1        0.0192
     19 C         140.4343  142.7918  168.3518 C.ar    1  UNL1        0.0031
     20 C         140.5896  143.3090  169.7512 C.ar    1  UNL1        0.0207
     21 C         140.2725  142.4216  170.9183 C.ar    1  UNL1        0.0989
     22 N         139.8002  141.0170  170.6859 N.ar    1  UNL1       -0.2423
     23 C         139.6450  140.4998  169.2864 C.ar    1  UNL1        0.0988
     24 O         138.9244  143.2516  159.4705 O.2     1  UNL1       -0.2700
     25 C         140.3750  143.5732  159.6766 C.2     1  UNL1        0.2504
     26 N         141.0703  144.5276  158.7516 N.am    1  UNL1       -0.3024
     27 H         142.0223  144.7387  158.8869 H       1  UNL1        0.1497
     28 C         140.3151  145.1605  157.6207 C.3     1  UNL1        0.0720
     29 C         139.8714  146.3876  156.8807 C.3     1  UNL1        0.0213
     30 C         139.4507  145.0298  156.4018 C.3     1  UNL1        0.0213
@<TRIPOS>BOND
     1    24    25    2
     2    25    26   am
     3    26    28    1
     4    28    29    1
     5    29    30    1
     6    25     1    1
     7     1     2   ar
     8     2     3   ar
     9     3    12    1
    10    12    13   ar
    11    13    14   ar
    12    14    15   ar
    13    15    16   ar
    14    16    18    1
    15    18    19   ar
    16    19    20   ar
    17    20    21   ar
    18    21    22   ar
    19    22    23   ar
    20    16    17   ar
    21     3     4   ar
    22     4     5   ar
    23     5     6   ar
    24     6     7   ar
    25     7     8   ar
    26     8     9   ar
    27     9    10   ar
    28    10    11    2
    29    30    28    1
    30    10     1   ar
    31    17    12   ar
    32     9     4   ar
    33    23    18   ar
    34    26    27    1
@<TRIPOS>MOLECULE
*****
 30 34 0 0 0
SMALL
GASTEIGER

@<TRIPOS>ATOM
      1 C         141.2412  140.5961  161.4033 C.ar    1  UNL1        0.1098
      2 C         140.7801  140.0772  162.7330 C.ar    1  UNL1        0.0891
      3 N         140.0392  140.9799  163.6744 N.ar    1  UNL1       -0.2900
      4 C         139.7593  142.4015  163.2860 C.ar    1  UNL1        0.1507
      5 N         139.0184  143.3042  164.2274 N.ar    1  UNL1       -0.2263
      6 C         138.7387  144.7258  163.8390 C.ar    1  UNL1        0.1005
      7 C         139.1998  145.2446  162.5093 C.ar    1  UNL1        0.0209
      8 C         139.9407  144.3420  161.5680 C.ar    1  UNL1        0.0078
      9 C         140.2205  142.9204  161.9563 C.ar    1  UNL1        0.0736
     10 C         140.9614  142.0177  161.0149 C.ar    1  UNL1        0.2043
     11 O         141.4225  142.5365  159.6852 O.2     1  UNL1       -0.2863
     12 C         139.5781  140.4610  165.0041 C.ar    1  UNL1        0.0654
     13 C         138.4786  139.4430  165.0716 C.ar    1  UNL1        0.0176
     14 C         138.0175  138.9241  166.4013 C.ar    1  UNL1        0.0015
     15 C         138.6558  139.4233  167.6635 C.ar    1  UNL1        0.0001
     16 C         139.7554  140.4414  167.5961 C.ar    1  UNL1        0.0029
     17 C         140.2165  140.9603  166.2664 C.ar    1  UNL1        0.0176
     18 C         140.3937  140.9406  168.8583 C.ar    1  UNL1        0.0192
     19 C         141.4586  141.9951  168.7940 C.ar    1  UNL1        0.0031
     20 C         142.0970  142.4943  170.0562 C.ar    1  UNL1        0.0207
     21 C         141.6705  141.9390  171.3828 C.ar    1  UNL1        0.0989
     22 N         140.6056  140.8845  171.4471 N.ar    1  UNL1       -0.2423
     23 C         139.9672  140.3853  170.1848 C.ar    1  UNL1        0.0988
     24 O         143.2528  139.0298  160.9033 O.2     1  UNL1       -0.2700
     25 C         141.9821  139.6933  160.4619 C.2     1  UNL1        0.2504
     26 N         141.4523  139.4542  159.0792 N.am    1  UNL1       -0.3024
     27 H         140.6182  139.8898  158.7894 H       1  UNL1        0.1497
     28 C         142.1931  138.5515  158.1378 C.3     1  UNL1        0.0720
     29 C         143.0135  138.3606  156.8966 C.3     1  UNL1        0.0213
     30 C         142.6560  137.1789  157.7484 C.3     1  UNL1        0.0213
@<TRIPOS>BOND
     1    24    25    2
     2    25    26   am
     3    26    28    1
     4    28    29    1
     5    29    30    1
     6    25     1    1
     7     1     2   ar
     8     2     3   ar
     9     3    12    1
    10    12    13   ar
    11    13    14   ar
    12    14    15   ar
    13    15    16   ar
    14    16    18    1
    15    18    19   ar
    16    19    20   ar
    17    20    21   ar
    18    21    22   ar
    19    22    23   ar
    20    16    17   ar
    21     3     4   ar
    22     4     5   ar
    23     5     6   ar
    24     6     7   ar
    25     7     8   ar
    26     8     9   ar
    27     9    10   ar
    28    10    11    2
    29    30    28    1
    30    10     1   ar
    31    17    12   ar
    32     9     4   ar
    33    23    18   ar
    34    26    27    1
@<TRIPOS>MOLECULE
*****
 30 34 0 0 0
SMALL
GASTEIGER

@<TRIPOS>ATOM
      1 C         139.8822  145.5652  156.4900 C.ar    1  UNL1        0.1098
      2 C         140.3846  145.7311  157.8936 C.ar    1  UNL1        0.0891
      3 N         140.1270  144.6620  158.9137 N.ar    1  UNL1       -0.2900
      4 C         139.3669  143.4269  158.5303 C.ar    1  UNL1        0.1507
      5 N         139.1093  142.3579  159.5504 N.ar    1  UNL1       -0.2263
      6 C         138.3493  141.1229  159.1669 C.ar    1  UNL1        0.1005
      7 C         137.8469  140.9569  157.7634 C.ar    1  UNL1        0.0209
      8 C         138.1045  142.0260  156.7432 C.ar    1  UNL1        0.0078
      9 C         138.8645  143.2610  157.1267 C.ar    1  UNL1        0.0736
     10 C         139.1222  144.3301  156.1065 C.ar    1  UNL1        0.2043
     11 O         138.6198  144.1642  154.7030 O.2     1  UNL1       -0.2863
     12 C         140.6294  144.8280  160.3173 C.ar    1  UNL1        0.0654
     13 C         139.9707  145.8118  161.2383 C.ar    1  UNL1        0.0176
     14 C         140.4731  145.9777  162.6419 C.ar    1  UNL1        0.0015
     15 C         141.6342  145.1599  163.1245 C.ar    1  UNL1        0.0001
     16 C         142.2930  144.1760  162.2035 C.ar    1  UNL1        0.0029
     17 C         141.7906  144.0101  160.7999 C.ar    1  UNL1        0.0176
     18 C         143.4541  143.3582  162.6861 C.ar    1  UNL1        0.0192
     19 C         143.7583  143.2801  164.1528 C.ar    1  UNL1        0.0031
     20 C         144.9194  142.4622  164.6354 C.ar    1  UNL1        0.0207
     21 C         145.7763  141.7225  163.6513 C.ar    1  UNL1        0.0989
     22 N         145.4721  141.8006  162.1845 N.ar    1  UNL1       -0.2423
     23 C         144.3109  142.6185  161.7019 C.ar    1  UNL1        0.0988
     24 O         141.0973  146.3810  154.3434 O.2     1  UNL1       -0.2700
     25 C         140.1398  146.6343  155.4699 C.2     1  UNL1        0.2504
     26 N         139.4399  147.9567  155.5763 N.am    1  UNL1       -0.3024
     27 H         138.8115  148.1230  156.3156 H       1  UNL1        0.1497
     28 C         139.6975  149.0258  154.5562 C.3     1  UNL1        0.0720
     29 C         139.9081  150.4710  154.2139 C.3     1  UNL1        0.0213
     30 C         139.9330  149.4325  153.1318 C.3     1  UNL1        0.0213
@<TRIPOS>BOND
     1    24    25    2
     2    25    26   am
     3    26    28    1
     4    28    29    1
     5    29    30    1
     6    25     1    1
     7     1     2   ar
     8     2     3   ar
     9     3    12    1
    10    12    13   ar
    11    13    14   ar
    12    14    15   ar
    13    15    16   ar
    14    16    18    1
    15    18    19   ar
    16    19    20   ar
    17    20    21   ar
    18    21    22   ar
    19    22    23   ar
    20    16    17   ar
    21     3     4   ar
    22     4     5   ar
    23     5     6   ar
    24     6     7   ar
    25     7     8   ar
    26     8     9   ar
    27     9    10   ar
    28    10    11    2
    29    30    28    1
    30    10     1   ar
    31    17    12   ar
    32     9     4   ar
    33    23    18   ar
    34    26    27    1
@<TRIPOS>MOLECULE
*****
 30 34 0 0 0
SMALL
GASTEIGER

@<TRIPOS>ATOM
      1 C         142.6968  140.9756  160.7997 C.ar    1  UNL1        0.1098
      2 C         142.9977  140.6555  162.2339 C.ar    1  UNL1        0.0891
      3 N         141.9109  140.1434  163.1320 N.ar    1  UNL1       -0.2900
      4 C         140.5231  139.9515  162.5960 C.ar    1  UNL1        0.1507
      5 N         139.4363  139.4395  163.4941 N.ar    1  UNL1       -0.2263
      6 C         138.0486  139.2476  162.9580 C.ar    1  UNL1        0.1005
      7 C         137.7477  139.5678  161.5238 C.ar    1  UNL1        0.0209
      8 C         138.8345  140.0798  160.6257 C.ar    1  UNL1        0.0078
      9 C         140.2222  140.2717  161.1618 C.ar    1  UNL1        0.0736
     10 C         141.3091  140.7838  160.2636 C.ar    1  UNL1        0.2043
     11 O         141.0081  141.1039  158.8294 O.2     1  UNL1       -0.2863
     12 C         142.2118  139.8232  164.5662 C.ar    1  UNL1        0.0654
     13 C         143.1974  138.7438  164.9029 C.ar    1  UNL1        0.0176
     14 C         143.4983  138.4236  166.3371 C.ar    1  UNL1        0.0015
     15 C         142.8137  139.1829  167.4346 C.ar    1  UNL1        0.0001
     16 C         141.8280  140.2624  167.0980 C.ar    1  UNL1        0.0029
     17 C         141.5271  140.5826  165.6638 C.ar    1  UNL1        0.0176
     18 C         141.1434  141.0217  168.1956 C.ar    1  UNL1        0.0192
     19 C         141.1986  142.5205  168.2182 C.ar    1  UNL1        0.0031
     20 C         140.5140  143.2798  169.3157 C.ar    1  UNL1        0.0207
     21 C         139.7740  142.5402  170.3908 C.ar    1  UNL1        0.0989
     22 N         139.7188  141.0414  170.3682 N.ar    1  UNL1       -0.2423
     23 C         140.4035  140.2821  169.2706 C.ar    1  UNL1        0.0988
     24 O         144.7459  142.5229  160.4037 O.2     1  UNL1       -0.2700
     25 C         143.7836  141.4877  159.9016 C.2     1  UNL1        0.2504
     26 N         143.9081  140.9645  158.5013 N.am    1  UNL1       -0.3024
     27 H         143.2765  140.2850  158.1717 H       1  UNL1        0.1497
     28 C         144.9949  141.4765  157.6032 C.3     1  UNL1        0.0720
     29 C         146.0289  142.5125  157.2756 C.3     1  UNL1        0.0213
     30 C         145.8433  141.3273  156.3752 C.3     1  UNL1        0.0213
@<TRIPOS>BOND
     1    24    25    2
     2    25    26   am
     3    26    28    1
     4    28    29    1
     5    29    30    1
     6    25     1    1
     7     1     2   ar
     8     2     3   ar
     9     3    12    1
    10    12    13   ar
    11    13    14   ar
    12    14    15   ar
    13    15    16   ar
    14    16    18    1
    15    18    19   ar
    16    19    20   ar
    17    20    21   ar
    18    21    22   ar
    19    22    23   ar
    20    16    17   ar
    21     3     4   ar
    22     4     5   ar
    23     5     6   ar
    24     6     7   ar
    25     7     8   ar
    26     8     9   ar
    27     9    10   ar
    28    10    11    2
    29    30    28    1
    30    10     1   ar
    31    17    12   ar
    32     9     4   ar
    33    23    18   ar
    34    26    27    1
@<TRIPOS>MOLECULE
*****
 30 34 0 0 0
SMALL
GASTEIGER

@<TRIPOS>ATOM
      1 C         143.8579  142.0596  158.6019 C.ar    1  UNL1        0.1098
      2 C         144.1410  142.4131  160.0319 C.ar    1  UNL1        0.0891
      3 N         143.0081  142.7043  160.9709 N.ar    1  UNL1       -0.2900
      4 C         141.5920  142.6422  160.4798 C.ar    1  UNL1        0.1507
      5 N         140.4591  142.9335  161.4187 N.ar    1  UNL1       -0.2263
      6 C         139.0432  142.8713  160.9276 C.ar    1  UNL1        0.1005
      7 C         138.7602  142.5179  159.4976 C.ar    1  UNL1        0.0209
      8 C         139.8931  142.2266  158.5587 C.ar    1  UNL1        0.0078
      9 C         141.3090  142.2887  159.0498 C.ar    1  UNL1        0.0736
     10 C         142.4420  141.9974  158.1108 C.ar    1  UNL1        0.2043
     11 O         142.1590  141.6440  156.6808 O.2     1  UNL1       -0.2863
     12 C         143.2911  143.0578  162.4009 C.ar    1  UNL1        0.0654
     13 C         143.8172  144.4192  162.7470 C.ar    1  UNL1        0.0176
     14 C         144.1002  144.7726  164.1770 C.ar    1  UNL1        0.0015
     15 C         143.8571  143.7647  165.2609 C.ar    1  UNL1        0.0001
     16 C         143.3310  142.4032  164.9149 C.ar    1  UNL1        0.0029
     17 C         143.0480  142.0498  163.4848 C.ar    1  UNL1        0.0176
     18 C         143.0880  141.3953  165.9988 C.ar    1  UNL1        0.0192
     19 C         142.7757  141.8533  167.3926 C.ar    1  UNL1        0.0031
     20 C         142.5327  140.8454  168.4765 C.ar    1  UNL1        0.0207
     21 C         142.6018  139.3793  168.1667 C.ar    1  UNL1        0.0989
     22 N         142.9141  138.9213  166.7729 N.ar    1  UNL1       -0.2423
     23 C         143.1572  139.9293  165.6889 C.ar    1  UNL1        0.0988
     24 O         145.2250  140.3670  157.1820 O.2     1  UNL1       -0.2700
     25 C         144.9909  141.7683  157.6630 C.2     1  UNL1        0.2504
     26 N         145.8898  142.8784  157.2051 N.am    1  UNL1       -0.3024
     27 H         145.7362  143.7982  157.5208 H       1  UNL1        0.1497
     28 C         147.0228  142.5872  156.2662 C.3     1  UNL1        0.0720
     29 C         148.4330  142.1319  156.0338 C.3     1  UNL1        0.0213
     30 C         147.5750  142.5381  154.8724 C.3     1  UNL1        0.0213
@<TRIPOS>BOND
     1    24    25    2
     2    25    26   am
     3    26    28    1
     4    28    29    1
     5    29    30    1
     6    25     1    1
     7     1     2   ar
     8     2     3   ar
     9     3    12    1
    10    12    13   ar
    11    13    14   ar
    12    14    15   ar
    13    15    16   ar
    14    16    18    1
    15    18    19   ar
    16    19    20   ar
    17    20    21   ar
    18    21    22   ar
    19    22    23   ar
    20    16    17   ar
    21     3     4   ar
    22     4     5   ar
    23     5     6   ar
    24     6     7   ar
    25     7     8   ar
    26     8     9   ar
    27     9    10   ar
    28    10    11    2
    29    30    28    1
    30    10     1   ar
    31    17    12   ar
    32     9     4   ar
    33    23    18   ar
    34    26    27    1
@<TRIPOS>MOLECULE
*****
 30 34 0 0 0
SMALL
GASTEIGER

@<TRIPOS>ATOM
      1 C         142.9268  138.8917  161.0093 C.ar    1  UNL1        0.1098
      2 C         142.4997  137.8819  159.9857 C.ar    1  UNL1        0.0891
      3 N         142.7114  138.1574  158.5265 N.ar    1  UNL1       -0.2900
      4 C         143.3501  139.4429  158.0909 C.ar    1  UNL1        0.1507
      5 N         143.5618  139.7184  156.6317 N.ar    1  UNL1       -0.2263
      6 C         144.2005  141.0038  156.1962 C.ar    1  UNL1        0.1005
      7 C         144.6275  142.0137  157.2198 C.ar    1  UNL1        0.0209
      8 C         144.4159  141.7381  158.6789 C.ar    1  UNL1        0.0078
      9 C         143.7772  140.4527  159.1145 C.ar    1  UNL1        0.0736
     10 C         143.5655  140.1771  160.5737 C.ar    1  UNL1        0.2043
     11 O         143.9926  141.1870  161.5974 O.2     1  UNL1       -0.2863
     12 C         142.2843  137.1476  157.5029 C.ar    1  UNL1        0.0654
     13 C         141.1018  137.4255  156.6230 C.ar    1  UNL1        0.0176
     14 C         140.6747  136.4157  155.5994 C.ar    1  UNL1        0.0015
     15 C         141.4302  135.1278  155.4557 C.ar    1  UNL1        0.0001
     16 C         142.6128  134.8498  156.3356 C.ar    1  UNL1        0.0029
     17 C         143.0398  135.8597  157.3592 C.ar    1  UNL1        0.0176
     18 C         143.3683  133.5620  156.1919 C.ar    1  UNL1        0.0192
     19 C         143.1425  132.6898  154.9926 C.ar    1  UNL1        0.0031
     20 C         143.8980  131.4020  154.8488 C.ar    1  UNL1        0.0207
     21 C         144.8793  130.9862  155.9045 C.ar    1  UNL1        0.0989
     22 N         145.1050  131.8584  157.1038 N.ar    1  UNL1       -0.2423
     23 C         144.3495  133.1463  157.2475 C.ar    1  UNL1        0.0988
     24 O         141.5242  137.8220  162.9168 O.2     1  UNL1       -0.2700
     25 C         142.7151  138.6161  162.4685 C.2     1  UNL1        0.2504
     26 N         143.6944  139.1347  163.4795 N.am    1  UNL1       -0.3024
     27 H         144.4761  139.6559  163.1853 H       1  UNL1        0.1497
     28 C         143.4828  138.8592  164.9387 C.3     1  UNL1        0.0720
     29 C         142.7235  139.1008  166.2095 C.3     1  UNL1        0.0213
     30 C         143.8755  138.1403  166.1952 C.3     1  UNL1        0.0213
@<TRIPOS>BOND
     1    24    25    2
     2    25    26   am
     3    26    28    1
     4    28    29    1
     5    29    30    1
     6    25     1    1
     7     1     2   ar
     8     2     3   ar
     9     3    12    1
    10    12    13   ar
    11    13    14   ar
    12    14    15   ar
    13    15    16   ar
    14    16    18    1
    15    18    19   ar
    16    19    20   ar
    17    20    21   ar
    18    21    22   ar
    19    22    23   ar
    20    16    17   ar
    21     3     4   ar
    22     4     5   ar
    23     5     6   ar
    24     6     7   ar
    25     7     8   ar
    26     8     9   ar
    27     9    10   ar
    28    10    11    2
    29    30    28    1
    30    10     1   ar
    31    17    12   ar
    32     9     4   ar
    33    23    18   ar
    34    26    27    1
