@<TRIPOS>MOLECULE
*****
 30 34 0 0 0
SMALL
GASTEIGER

@<TRIPOS>ATOM
      1 C         141.8087  140.0524  166.9403 C.2     1  UNL1       -0.0007
      2 C         143.1396  140.1368  166.2535 C.2     1  UNL1        0.0192
      3 C         143.3268  139.5141  164.9018 C.2     1  UNL1        0.1207
      4 N         144.5138  139.4371  163.9880 N.2     1  UNL1       -0.0381
      5 N         144.1037  138.6823  162.7582 N.2     1  UNL1        0.0756
      6 C         142.6634  138.2929  162.9121 C.2     1  UNL1        0.3335
      7 C         142.1832  138.8070  164.2369 C.3     1  UNL1        0.1733
      8 C         140.8523  138.7226  164.9237 C.2     1  UNL1       -0.0125
      9 C         140.6651  139.3453  166.2754 C.2     1  UNL1       -0.0257
     10 C         140.3851  144.0991  169.8726 C.3     1  UNL1        0.0545
     11 C         140.9097  142.6985  169.7582 C.ar    1  UNL1        0.0867
     12 N         141.2469  141.9205  170.9955 N.ar    1  UNL1       -0.2459
     13 C         141.7715  140.5199  170.8812 C.ar    1  UNL1        0.0986
     14 C         141.9587  139.8972  169.5295 C.ar    1  UNL1        0.0229
     15 C         141.6214  140.6751  168.2921 C.ar    1  UNL1        0.0299
     16 C         141.0969  142.0758  168.4065 C.ar    1  UNL1        0.1535
     17 F         140.7596  142.8537  167.1691 F       1  UNL1       -0.2029
     18 C         139.3342  139.2609  166.9622 C.3     1  UNL1        0.0221
     19 C         138.4584  139.5690  168.1404 C.3     1  UNL1        0.0047
     20 C         137.9047  138.8064  166.9734 C.3     1  UNL1        0.0047
     21 N         141.8466  137.5244  161.9159 N.pl3   1  UNL1       -0.2209
     22 H         142.0521  136.5786  161.7359 H       1  UNL1        0.2920
     23 C         140.7167  138.1969  161.1941 C.3     1  UNL1        0.1917
     24 C         140.9943  139.0326  159.9798 C.3     1  UNL1        0.0664
     25 C         139.8645  139.7051  159.2579 C.3     1  UNL1        0.0729
     26 N         138.4570  139.5419  159.7504 N.3     1  UNL1       -0.2950
     27 C         138.1795  138.7063  160.9647 C.3     1  UNL1        0.1085
     28 C         139.3093  138.0338  161.6866 C.3     1  UNL1        0.2186
     29 F         139.0318  137.1981  162.9009 F       1  UNL1       -0.2315
     30 H         137.9222  139.1339  158.9837 H       1  UNL1        0.1233
@<TRIPOS>BOND
     1    10    11    1
     2    11    12   ar
     3    12    13   ar
     4    13    14   ar
     5    14    15   ar
     6    15     1    1
     7     1     2    2
     8     2     3    1
     9     3     4    2
    10     4     5    1
    11     5     6    2
    12     6    21    1
    13    23    21    1
    14    23    24    1
    15    24    25    1
    16    25    26    1
    17    26    27    1
    18    27    28    1
    19    28    29    1
    20     6     7    1
    21     7     8    1
    22     8     9    2
    23     9    18    1
    24    18    19    1
    25    19    20    1
    26    15    16   ar
    27    16    17    1
    28    16    11   ar
    29     9     1    1
    30    20    18    1
    31     7     3    1
    32    28    23    1
    33    21    22    1
    34    26    30    1
@<TRIPOS>MOLECULE
*****
 30 34 0 0 0
SMALL
GASTEIGER

@<TRIPOS>ATOM
      1 C         140.1773  142.9449  163.6646 C.2     1  UNL1       -0.0007
      2 C         139.0379  142.0168  163.9654 C.2     1  UNL1        0.0192
      3 C         139.1360  141.0566  165.1136 C.2     1  UNL1        0.1207
      4 N         138.1818  140.0296  165.6474 N.2     1  UNL1       -0.0381
      5 N         138.8295  139.3629  166.8247 N.2     1  UNL1        0.0756
      6 C         140.1839  139.9778  167.0185 C.2     1  UNL1        0.3335
      7 C         140.3733  141.0246  165.9610 C.3     1  UNL1        0.1733
      8 C         141.5126  141.9527  165.6601 C.2     1  UNL1       -0.0125
      9 C         141.4146  142.9129  164.5119 C.2     1  UNL1       -0.0257
     10 C         140.7276  143.9766  158.6016 C.3     1  UNL1        0.0545
     11 C         140.3544  144.4210  159.9848 C.ar    1  UNL1        0.0867
     12 N         139.8833  145.8255  160.2198 N.ar    1  UNL1       -0.2459
     13 C         139.5102  146.2699  161.6031 C.ar    1  UNL1        0.0986
     14 C         139.6082  145.3097  162.7513 C.ar    1  UNL1        0.0229
     15 C         140.0793  143.9052  162.5163 C.ar    1  UNL1        0.0299
     16 C         140.4524  143.4608  161.1331 C.ar    1  UNL1        0.1535
     17 F         140.9236  142.0563  160.8981 F       1  UNL1       -0.2029
     18 C         142.5539  143.8411  164.2111 C.3     1  UNL1        0.0221
     19 C         143.0564  145.2107  163.8623 C.3     1  UNL1        0.0047
     20 C         144.0249  144.0789  164.0389 C.3     1  UNL1        0.0047
     21 N         141.1748  139.6104  168.0829 N.pl3   1  UNL1       -0.2209
     22 H         141.5708  138.7091  168.0969 H       1  UNL1        0.2920
     23 C         141.5625  140.6161  169.1261 C.3     1  UNL1        0.1917
     24 C         142.9092  141.2742  169.0695 C.3     1  UNL1        0.0664
     25 C         143.2969  142.2799  170.1126 C.3     1  UNL1        0.0729
     26 N         142.3378  142.6275  171.2124 N.3     1  UNL1       -0.2950
     27 C         140.9911  141.9694  171.2689 C.3     1  UNL1        0.1085
     28 C         140.6035  140.9637  170.2258 C.3     1  UNL1        0.2186
     29 F         139.2567  140.3056  170.2823 F       1  UNL1       -0.2315
     30 H         142.1723  143.6322  171.1521 H       1  UNL1        0.1233
@<TRIPOS>BOND
     1    10    11    1
     2    11    12   ar
     3    12    13   ar
     4    13    14   ar
     5    14    15   ar
     6    15     1    1
     7     1     2    2
     8     2     3    1
     9     3     4    2
    10     4     5    1
    11     5     6    2
    12     6    21    1
    13    23    21    1
    14    23    24    1
    15    24    25    1
    16    25    26    1
    17    26    27    1
    18    27    28    1
    19    28    29    1
    20     6     7    1
    21     7     8    1
    22     8     9    2
    23     9    18    1
    24    18    19    1
    25    19    20    1
    26    15    16   ar
    27    16    17    1
    28    16    11   ar
    29     9     1    1
    30    20    18    1
    31     7     3    1
    32    28    23    1
    33    21    22    1
    34    26    30    1
@<TRIPOS>MOLECULE
*****
 30 34 0 0 0
SMALL
GASTEIGER

@<TRIPOS>ATOM
      1 C         140.9864  142.2092  163.3850 C.2     1  UNL1       -0.0007
      2 C         142.0591  141.1650  163.2892 C.2     1  UNL1        0.0192
      3 C         142.4470  140.3746  164.5036 C.2     1  UNL1        0.1207
      4 N         143.4606  139.2889  164.7129 N.2     1  UNL1       -0.0381
      5 N         143.4022  138.8717  166.1525 N.2     1  UNL1        0.0756
      6 C         142.3526  139.6995  166.8329 C.2     1  UNL1        0.3335
      7 C         141.7622  140.6284  165.8138 C.3     1  UNL1        0.1733
      8 C         140.6896  141.6726  165.9096 C.2     1  UNL1       -0.0125
      9 C         140.3017  142.4629  164.6952 C.2     1  UNL1       -0.0257
     10 C         138.4268  142.5669  158.8771 C.3     1  UNL1        0.0545
     11 C         139.3187  143.1785  159.9166 C.ar    1  UNL1        0.0867
     12 N         139.8227  144.5804  159.7417 N.ar    1  UNL1       -0.2459
     13 C         140.7147  145.1919  160.7812 C.ar    1  UNL1        0.0986
     14 C         141.1025  144.4015  161.9956 C.ar    1  UNL1        0.0229
     15 C         140.5985  142.9996  162.1705 C.ar    1  UNL1        0.0299
     16 C         139.7066  142.3881  161.1310 C.ar    1  UNL1        0.1535
     17 F         139.2026  140.9862  161.3060 F       1  UNL1       -0.2029
     18 C         139.2290  143.5071  164.7911 C.3     1  UNL1        0.0221
     19 C         138.7489  144.8333  165.3017 C.3     1  UNL1        0.0047
     20 C         137.8511  143.9893  164.4464 C.3     1  UNL1        0.0047
     21 N         141.9619  139.6135  168.2786 N.pl3   1  UNL1       -0.2209
     22 H         141.8097  138.7349  168.6959 H       1  UNL1        0.2920
     23 C         141.8032  140.8661  169.0884 C.3     1  UNL1        0.1917
     24 C         143.0120  141.6600  169.4864 C.3     1  UNL1        0.0664
     25 C         142.8534  142.9126  170.2963 C.3     1  UNL1        0.0729
     26 N         141.4858  143.3712  170.7081 N.3     1  UNL1       -0.2950
     27 C         140.2770  142.5773  170.3100 C.3     1  UNL1        0.1085
     28 C         140.4357  141.3248  169.5002 C.3     1  UNL1        0.2186
     29 F         139.2269  140.5308  169.1022 F       1  UNL1       -0.2315
     30 H         141.3618  144.3084  170.3250 H       1  UNL1        0.1233
@<TRIPOS>BOND
     1    10    11    1
     2    11    12   ar
     3    12    13   ar
     4    13    14   ar
     5    14    15   ar
     6    15     1    1
     7     1     2    2
     8     2     3    1
     9     3     4    2
    10     4     5    1
    11     5     6    2
    12     6    21    1
    13    23    21    1
    14    23    24    1
    15    24    25    1
    16    25    26    1
    17    26    27    1
    18    27    28    1
    19    28    29    1
    20     6     7    1
    21     7     8    1
    22     8     9    2
    23     9    18    1
    24    18    19    1
    25    19    20    1
    26    15    16   ar
    27    16    17    1
    28    16    11   ar
    29     9     1    1
    30    20    18    1
    31     7     3    1
    32    28    23    1
    33    21    22    1
    34    26    30    1
@<TRIPOS>MOLECULE
*****
 30 34 0 0 0
SMALL
GASTEIGER

@<TRIPOS>ATOM
      1 C         139.6709  141.9899  164.6146 C.2     1  UNL1       -0.0007
      2 C         138.7080  143.0577  164.1872 C.2     1  UNL1        0.0192
      3 C         139.0914  144.0243  163.1061 C.2     1  UNL1        0.1207
      4 N         138.3572  145.1726  162.4799 N.2     1  UNL1       -0.0381
      5 N         139.2498  145.7811  161.4392 N.2     1  UNL1        0.0756
      6 C         140.5356  145.0089  161.4222 C.2     1  UNL1        0.3335
      7 C         140.4377  143.9231  162.4525 C.3     1  UNL1        0.1733
      8 C         141.4006  142.8553  162.8799 C.2     1  UNL1       -0.0125
      9 C         141.0171  141.8887  163.9610 C.2     1  UNL1       -0.0257
     10 C         140.0549  140.3532  169.5313 C.3     1  UNL1        0.0545
     11 C         139.4795  140.2049  168.1540 C.ar    1  UNL1        0.0867
     12 N         138.5206  139.0901  167.8578 N.ar    1  UNL1       -0.2459
     13 C         137.9451  138.9419  166.4805 C.ar    1  UNL1        0.0986
     14 C         138.3286  139.9085  165.3995 C.ar    1  UNL1        0.0229
     15 C         139.2874  141.0233  165.6957 C.ar    1  UNL1        0.0299
     16 C         139.8629  141.1715  167.0730 C.ar    1  UNL1        0.1535
     17 F         140.8218  142.2863  167.3692 F       1  UNL1       -0.2029
     18 C         141.9801  140.8209  164.3884 C.3     1  UNL1        0.0221
     19 C         142.3886  139.3780  164.4224 C.3     1  UNL1        0.0047
     20 C         143.2394  140.4144  165.0947 C.3     1  UNL1        0.0047
     21 N         141.7126  145.2756  160.5314 N.pl3   1  UNL1       -0.2209
     22 H         142.4286  145.8816  160.8301 H       1  UNL1        0.2920
     23 C         141.7986  144.6189  159.1855 C.3     1  UNL1        0.1917
     24 C         142.7674  143.4964  158.9593 C.3     1  UNL1        0.0664
     25 C         142.8535  142.8397  157.6135 C.3     1  UNL1        0.0729
     26 N         141.9707  143.3057  156.4938 N.3     1  UNL1       -0.2950
     27 C         141.0019  144.4283  156.7201 C.3     1  UNL1        0.1085
     28 C         140.9159  145.0849  158.0659 C.3     1  UNL1        0.2186
     29 F         139.9471  146.2075  158.2922 F       1  UNL1       -0.2315
     30 H         141.4222  142.4990  156.1960 H       1  UNL1        0.1233
@<TRIPOS>BOND
     1    10    11    1
     2    11    12   ar
     3    12    13   ar
     4    13    14   ar
     5    14    15   ar
     6    15     1    1
     7     1     2    2
     8     2     3    1
     9     3     4    2
    10     4     5    1
    11     5     6    2
    12     6    21    1
    13    23    21    1
    14    23    24    1
    15    24    25    1
    16    25    26    1
    17    26    27    1
    18    27    28    1
    19    28    29    1
    20     6     7    1
    21     7     8    1
    22     8     9    2
    23     9    18    1
    24    18    19    1
    25    19    20    1
    26    15    16   ar
    27    16    17    1
    28    16    11   ar
    29     9     1    1
    30    20    18    1
    31     7     3    1
    32    28    23    1
    33    21    22    1
    34    26    30    1
@<TRIPOS>MOLECULE
*****
 30 34 0 0 0
SMALL
GASTEIGER

@<TRIPOS>ATOM
      1 C         140.0374  142.3379  164.7261 C.2     1  UNL1       -0.0007
      2 C         139.0321  143.3589  164.2821 C.2     1  UNL1        0.0192
      3 C         139.3208  144.2286  163.0945 C.2     1  UNL1        0.1207
      4 N         138.5275  145.3135  162.4284 N.2     1  UNL1       -0.0381
      5 N         139.3312  145.8326  161.2732 N.2     1  UNL1        0.0756
      6 C         140.6211  145.0686  161.2253 C.2     1  UNL1        0.3335
      7 C         140.6147  144.0772  162.3510 C.3     1  UNL1        0.1733
      8 C         141.6199  143.0563  162.7950 C.2     1  UNL1       -0.0125
      9 C         141.3312  142.1866  163.9826 C.2     1  UNL1       -0.0257
     10 C         137.7417  138.1589  166.7916 C.3     1  UNL1        0.0545
     11 C         138.6008  139.3787  166.9465 C.ar    1  UNL1        0.0867
     12 N         139.1712  139.7289  168.2888 N.ar    1  UNL1       -0.2459
     13 C         140.0303  140.9488  168.4437 C.ar    1  UNL1        0.0986
     14 C         140.3190  141.8184  167.2561 C.ar    1  UNL1        0.0229
     15 C         139.7486  141.4682  165.9137 C.ar    1  UNL1        0.0299
     16 C         138.8895  140.2484  165.7589 C.ar    1  UNL1        0.1535
     17 F         138.3192  139.8982  164.4165 F       1  UNL1       -0.2029
     18 C         142.3365  141.1656  164.4266 C.3     1  UNL1        0.0221
     19 C         143.6123  140.8220  165.1366 C.3     1  UNL1        0.0047
     20 C         142.8017  139.7408  164.4855 C.3     1  UNL1        0.0047
     21 N         141.7239  145.2621  160.2270 N.pl3   1  UNL1       -0.2209
     22 H         142.4246  145.9337  160.3916 H       1  UNL1        0.2920
     23 C         141.7590  144.4321  158.9780 C.3     1  UNL1        0.1917
     24 C         141.3594  142.9872  159.0263 C.3     1  UNL1        0.0664
     25 C         141.3945  142.1571  157.7774 C.3     1  UNL1        0.0729
     26 N         141.8293  142.7722  156.4801 N.3     1  UNL1       -0.2950
     27 C         142.2289  144.2172  156.4319 C.3     1  UNL1        0.1085
     28 C         142.1937  145.0471  157.6808 C.3     1  UNL1        0.2186
     29 F         142.5933  146.4921  157.6326 F       1  UNL1       -0.2315
     30 H         141.0546  142.6590  155.8263 H       1  UNL1        0.1233
@<TRIPOS>BOND
     1    10    11    1
     2    11    12   ar
     3    12    13   ar
     4    13    14   ar
     5    14    15   ar
     6    15     1    1
     7     1     2    2
     8     2     3    1
     9     3     4    2
    10     4     5    1
    11     5     6    2
    12     6    21    1
    13    23    21    1
    14    23    24    1
    15    24    25    1
    16    25    26    1
    17    26    27    1
    18    27    28    1
    19    28    29    1
    20     6     7    1
    21     7     8    1
    22     8     9    2
    23     9    18    1
    24    18    19    1
    25    19    20    1
    26    15    16   ar
    27    16    17    1
    28    16    11   ar
    29     9     1    1
    30    20    18    1
    31     7     3    1
    32    28    23    1
    33    21    22    1
    34    26    30    1
@<TRIPOS>MOLECULE
*****
 30 34 0 0 0
SMALL
GASTEIGER

@<TRIPOS>ATOM
      1 C         140.6292  141.6668  166.2569 C.2     1  UNL1       -0.0007
      2 C         141.2496  142.9129  165.6979 C.2     1  UNL1        0.0192
      3 C         140.7022  143.5250  164.4426 C.2     1  UNL1        0.1207
      4 N         141.1031  144.7413  163.6616 N.2     1  UNL1       -0.0381
      5 N         140.1832  144.8590  162.4826 N.2     1  UNL1        0.0756
      6 C         139.2138  143.7156  162.5351 C.2     1  UNL1        0.3335
      7 C         139.5345  142.8911  163.7465 C.3     1  UNL1        0.1733
      8 C         138.9142  141.6451  164.3055 C.2     1  UNL1       -0.0125
      9 C         139.4616  141.0330  165.5608 C.2     1  UNL1       -0.0257
     10 C         141.0470  141.6340  171.4362 C.3     1  UNL1        0.0545
     11 C         141.3855  141.0383  170.1019 C.ar    1  UNL1        0.0867
     12 N         142.2713  139.8304  170.0228 N.ar    1  UNL1       -0.2459
     13 C         142.6098  139.2346  168.6884 C.ar    1  UNL1        0.0986
     14 C         142.0625  139.8467  167.4331 C.ar    1  UNL1        0.0229
     15 C         141.1766  141.0546  167.5122 C.ar    1  UNL1        0.0299
     16 C         140.8381  141.6504  168.8466 C.ar    1  UNL1        0.1535
     17 F         139.9523  142.8583  168.9257 F       1  UNL1       -0.2029
     18 C         138.8412  139.7868  166.1198 C.3     1  UNL1        0.0221
     19 C         138.1240  139.0784  167.2305 C.3     1  UNL1        0.0047
     20 C         138.4840  138.3370  165.9772 C.3     1  UNL1        0.0047
     21 N         138.1163  143.4442  161.5493 N.pl3   1  UNL1       -0.2209
     22 H         137.3378  144.0450  161.5016 H       1  UNL1        0.2920
     23 C         138.2048  142.2575  160.6361 C.3     1  UNL1        0.1917
     24 C         137.7713  140.9054  161.1193 C.3     1  UNL1        0.0664
     25 C         137.8598  139.7186  160.2062 C.3     1  UNL1        0.0729
     26 N         138.3819  139.8842  158.8097 N.3     1  UNL1       -0.2950
     27 C         138.8155  141.2364  158.3265 C.3     1  UNL1        0.1085
     28 C         138.7269  142.4231  159.2397 C.3     1  UNL1        0.2186
     29 F         139.1605  143.7753  158.7565 F       1  UNL1       -0.2315
     30 H         137.6438  139.5693  158.1801 H       1  UNL1        0.1233
@<TRIPOS>BOND
     1    10    11    1
     2    11    12   ar
     3    12    13   ar
     4    13    14   ar
     5    14    15   ar
     6    15     1    1
     7     1     2    2
     8     2     3    1
     9     3     4    2
    10     4     5    1
    11     5     6    2
    12     6    21    1
    13    23    21    1
    14    23    24    1
    15    24    25    1
    16    25    26    1
    17    26    27    1
    18    27    28    1
    19    28    29    1
    20     6     7    1
    21     7     8    1
    22     8     9    2
    23     9    18    1
    24    18    19    1
    25    19    20    1
    26    15    16   ar
    27    16    17    1
    28    16    11   ar
    29     9     1    1
    30    20    18    1
    31     7     3    1
    32    28    23    1
    33    21    22    1
    34    26    30    1
@<TRIPOS>MOLECULE
*****
 30 34 0 0 0
SMALL
GASTEIGER

@<TRIPOS>ATOM
      1 C         140.6741  142.4019  166.4674 C.2     1  UNL1       -0.0007
      2 C         139.7782  143.5427  166.0852 C.2     1  UNL1        0.0192
      3 C         139.2917  143.6734  164.6724 C.2     1  UNL1        0.1207
      4 N         138.4062  144.6837  164.0052 N.2     1  UNL1       -0.0381
      5 N         138.2682  144.2981  162.5622 N.2     1  UNL1        0.0756
      6 C         139.0685  143.0494  162.3376 C.2     1  UNL1        0.3335
      7 C         139.7010  142.6634  163.6417 C.3     1  UNL1        0.1733
      8 C         140.5969  141.5226  164.0240 C.2     1  UNL1       -0.0125
      9 C         141.0834  141.3919  165.4368 C.2     1  UNL1       -0.0257
     10 C         144.5315  142.6528  169.9399 C.3     1  UNL1        0.0545
     11 C         143.0893  142.3967  169.6166 C.ar    1  UNL1        0.0867
     12 N         142.1337  142.0098  170.7061 N.ar    1  UNL1       -0.2459
     13 C         140.6915  141.7536  170.3827 C.ar    1  UNL1        0.0986
     14 C         140.2050  141.8843  168.9699 C.ar    1  UNL1        0.0229
     15 C         141.1606  142.2712  167.8804 C.ar    1  UNL1        0.0299
     16 C         142.6028  142.5274  168.2037 C.ar    1  UNL1        0.1535
     17 F         143.5584  142.9142  167.1142 F       1  UNL1       -0.2029
     18 C         141.9792  140.2511  165.8190 C.3     1  UNL1        0.0221
     19 C         143.3529  139.6587  165.9298 C.3     1  UNL1        0.0047
     20 C         142.1571  138.8674  166.3703 C.3     1  UNL1        0.0047
     21 N         139.2111  142.3156  161.0371 N.pl3   1  UNL1       -0.2209
     22 H         139.3644  142.8166  160.2035 H       1  UNL1        0.2920
     23 C         139.1202  140.8187  161.0066 C.3     1  UNL1        0.1917
     24 C         140.1503  140.0198  160.2647 C.3     1  UNL1        0.0664
     25 C         140.0595  138.5228  160.2342 C.3     1  UNL1        0.0729
     26 N         138.9384  137.8249  160.9457 N.3     1  UNL1       -0.2950
     27 C         137.9084  138.6239  161.6876 C.3     1  UNL1        0.1085
     28 C         137.9992  140.1207  161.7181 C.3     1  UNL1        0.2186
     29 F         136.9692  140.9198  162.4600 F       1  UNL1       -0.2315
     30 H         139.3670  137.1950  161.6238 H       1  UNL1        0.1233
@<TRIPOS>BOND
     1    10    11    1
     2    11    12   ar
     3    12    13   ar
     4    13    14   ar
     5    14    15   ar
     6    15     1    1
     7     1     2    2
     8     2     3    1
     9     3     4    2
    10     4     5    1
    11     5     6    2
    12     6    21    1
    13    23    21    1
    14    23    24    1
    15    24    25    1
    16    25    26    1
    17    26    27    1
    18    27    28    1
    19    28    29    1
    20     6     7    1
    21     7     8    1
    22     8     9    2
    23     9    18    1
    24    18    19    1
    25    19    20    1
    26    15    16   ar
    27    16    17    1
    28    16    11   ar
    29     9     1    1
    30    20    18    1
    31     7     3    1
    32    28    23    1
    33    21    22    1
    34    26    30    1
@<TRIPOS>MOLECULE
*****
 30 34 0 0 0
SMALL
GASTEIGER

@<TRIPOS>ATOM
      1 C         140.6164  142.0024  166.0387 C.2     1  UNL1       -0.0007
      2 C         139.7633  143.2132  165.8010 C.2     1  UNL1        0.0192
      3 C         139.3844  143.6008  164.4023 C.2     1  UNL1        0.1207
      4 N         138.5615  144.7328  163.8626 N.2     1  UNL1       -0.0381
      5 N         138.5270  144.6093  162.3681 N.2     1  UNL1        0.0756
      6 C         139.3286  143.4009  161.9842 C.2     1  UNL1        0.3335
      7 C         139.8585  142.7777  163.2415 C.3     1  UNL1        0.1733
      8 C         140.7115  141.5669  163.4792 C.2     1  UNL1       -0.0125
      9 C         141.0904  141.1793  164.8778 C.2     1  UNL1       -0.0257
     10 C         143.9819  142.1532  169.9948 C.3     1  UNL1        0.0545
     11 C         142.6781  141.6902  169.4154 C.ar    1  UNL1        0.0867
     12 N         141.7532  140.8397  170.2346 N.ar    1  UNL1       -0.2459
     13 C         140.4493  140.3767  169.6552 C.ar    1  UNL1        0.0986
     14 C         140.0704  140.7643  168.2566 C.ar    1  UNL1        0.0229
     15 C         140.9953  141.6148  167.4374 C.ar    1  UNL1        0.0299
     16 C         142.2991  142.0778  168.0168 C.ar    1  UNL1        0.1535
     17 F         143.2240  142.9283  167.1976 F       1  UNL1       -0.2029
     18 C         141.9434  139.9685  165.1155 C.3     1  UNL1        0.0221
     19 C         143.2645  139.3627  165.4865 C.3     1  UNL1        0.0047
     20 C         142.0996  138.4772  165.1561 C.3     1  UNL1        0.0047
     21 N         139.5596  142.9033  160.5882 N.pl3   1  UNL1       -0.2209
     22 H         138.9977  142.1818  160.2234 H       1  UNL1        0.2920
     23 C         140.6468  143.5048  159.7478 C.3     1  UNL1        0.1917
     24 C         140.4192  144.8138  159.0518 C.3     1  UNL1        0.0664
     25 C         141.5064  145.4154  158.2114 C.3     1  UNL1        0.0729
     26 N         142.8211  144.7078  158.0671 N.3     1  UNL1       -0.2950
     27 C         143.0486  143.3987  158.7631 C.3     1  UNL1        0.1085
     28 C         141.9615  142.7972  159.6034 C.3     1  UNL1        0.2186
     29 F         142.1890  141.4881  160.2994 F       1  UNL1       -0.2315
     30 H         143.5392  145.3490  158.4039 H       1  UNL1        0.1233
@<TRIPOS>BOND
     1    10    11    1
     2    11    12   ar
     3    12    13   ar
     4    13    14   ar
     5    14    15   ar
     6    15     1    1
     7     1     2    2
     8     2     3    1
     9     3     4    2
    10     4     5    1
    11     5     6    2
    12     6    21    1
    13    23    21    1
    14    23    24    1
    15    24    25    1
    16    25    26    1
    17    26    27    1
    18    27    28    1
    19    28    29    1
    20     6     7    1
    21     7     8    1
    22     8     9    2
    23     9    18    1
    24    18    19    1
    25    19    20    1
    26    15    16   ar
    27    16    17    1
    28    16    11   ar
    29     9     1    1
    30    20    18    1
    31     7     3    1
    32    28    23    1
    33    21    22    1
    34    26    30    1
@<TRIPOS>MOLECULE
*****
 30 34 0 0 0
SMALL
GASTEIGER

@<TRIPOS>ATOM
      1 C         141.8250  141.6183  165.8662 C.2     1  UNL1       -0.0007
      2 C         143.1917  141.0140  165.7359 C.2     1  UNL1        0.0192
      3 C         144.0667  141.3818  164.5745 C.2     1  UNL1        0.1207
      4 N         145.4496  140.9515  164.1839 N.2     1  UNL1       -0.0381
      5 N         145.8126  141.6577  162.9112 N.2     1  UNL1        0.0756
      6 C         144.6541  142.5244  162.5153 C.2     1  UNL1        0.3335
      7 C         143.5751  142.3539  163.5433 C.3     1  UNL1        0.1733
      8 C         142.2084  142.9582  163.6735 C.2     1  UNL1       -0.0125
      9 C         141.3334  142.5904  164.8350 C.2     1  UNL1       -0.0257
     10 C         140.3249  142.3665  170.7846 C.3     1  UNL1        0.0545
     11 C         140.1999  141.6246  169.4869 C.ar    1  UNL1        0.0867
     12 N         139.1998  140.5150  169.3506 N.ar    1  UNL1       -0.2459
     13 C         139.0748  139.7731  168.0529 C.ar    1  UNL1        0.0986
     14 C         139.9498  140.1409  166.8915 C.ar    1  UNL1        0.0229
     15 C         140.9499  141.2505  167.0277 C.ar    1  UNL1        0.0299
     16 C         141.0749  141.9924  168.3254 C.ar    1  UNL1        0.1535
     17 F         142.0750  143.1020  168.4616 F       1  UNL1       -0.2029
     18 C         139.9666  143.1947  164.9652 C.3     1  UNL1        0.0221
     19 C         139.0723  144.2878  165.4706 C.3     1  UNL1        0.0047
     20 C         138.4937  143.1482  164.6854 C.3     1  UNL1        0.0047
     21 N         144.5865  143.4067  161.3041 N.pl3   1  UNL1       -0.2209
     22 H         145.1044  144.2434  161.2752 H       1  UNL1        0.2920
     23 C         143.7298  143.0141  160.1371 C.3     1  UNL1        0.1917
     24 C         144.2028  141.9600  159.1806 C.3     1  UNL1        0.0664
     25 C         143.3462  141.5673  158.0135 C.3     1  UNL1        0.0729
     26 N         142.0165  142.2289  157.8031 N.3     1  UNL1       -0.2950
     27 C         141.5435  143.2831  158.7597 C.3     1  UNL1        0.1085
     28 C         142.4002  143.6756  159.9266 C.3     1  UNL1        0.2186
     29 F         141.9272  144.7298  160.8832 F       1  UNL1       -0.2315
     30 H         141.3148  141.4886  157.8102 H       1  UNL1        0.1233
@<TRIPOS>BOND
     1    10    11    1
     2    11    12   ar
     3    12    13   ar
     4    13    14   ar
     5    14    15   ar
     6    15     1    1
     7     1     2    2
     8     2     3    1
     9     3     4    2
    10     4     5    1
    11     5     6    2
    12     6    21    1
    13    23    21    1
    14    23    24    1
    15    24    25    1
    16    25    26    1
    17    26    27    1
    18    27    28    1
    19    28    29    1
    20     6     7    1
    21     7     8    1
    22     8     9    2
    23     9    18    1
    24    18    19    1
    25    19    20    1
    26    15    16   ar
    27    16    17    1
    28    16    11   ar
    29     9     1    1
    30    20    18    1
    31     7     3    1
    32    28    23    1
    33    21    22    1
    34    26    30    1
