@<TRIPOS>MOLECULE
*****
 34 38 0 0 0
SMALL
GASTEIGER

@<TRIPOS>ATOM
      1 N         140.1863  144.5983  161.7019 N.3     1  UNL1       -0.2690
      2 C         140.9513  144.9444  162.9449 C.3     1  UNL1        0.0724
      3 C         140.8102  144.0951  164.1732 C.3     1  UNL1        0.0175
      4 C         139.9042  142.8998  164.1586 C.3     1  UNL1        0.0060
      5 C         139.1392  142.5538  162.9156 C.3     1  UNL1        0.0175
      6 C         139.2802  143.4030  161.6873 C.3     1  UNL1        0.0724
      7 C         140.6692  143.2459  165.4016 C.3     1  UNL1        0.0217
      8 C         140.5281  142.3966  166.6300 C.3     1  UNL1        0.0937
      9 N         139.6220  141.2013  166.6153 N.am    1  UNL1       -0.2761
     10 C         139.4809  140.3521  167.8438 C.2     1  UNL1        0.2492
     11 O         138.5748  139.1568  167.8291 O.2     1  UNL1       -0.2699
     12 C         138.8570  140.8553  165.3724 C.3     1  UNL1        0.0937
     13 C         138.9981  141.7045  164.1440 C.3     1  UNL1        0.0217
     14 C         140.2459  140.6981  169.0867 C.ar    1  UNL1        0.0579
     15 C         139.7480  141.7817  169.9966 C.ar    1  UNL1        0.0253
     16 C         140.5130  142.1278  171.2395 C.ar    1  UNL1        0.1004
     17 N         141.7760  141.3903  171.5726 N.ar    1  UNL1       -0.2296
     18 C         142.2739  140.3067  170.6628 C.ar    1  UNL1        0.1255
     19 N         143.5369  139.5691  170.9958 N.pl3   1  UNL1       -0.3426
     20 C         141.5089  139.9606  169.4198 C.ar    1  UNL1        0.0384
     21 H         144.0390  139.7963  171.8116 H       1  UNL1        0.1437
     22 H         143.8637  138.8579  170.3987 H       1  UNL1        0.1437
     23 C         140.3274  145.4476  160.4735 C.3     1  UNL1        0.0989
     24 C         138.9691  147.6057  156.0261 C.3     1  UNL1        0.0439
     25 C         140.0928  146.6162  155.9357 C.3     1  UNL1        0.1374
     26 C         140.0620  146.9523  154.4742 C.3     1  UNL1        0.0439
     27 C         139.8887  146.4869  157.4161 C.3     1  UNL1        0.0691
     28 C         140.8797  145.4877  157.9351 C.ar    1  UNL1        0.0126
     29 C         141.1441  144.9594  159.3139 C.ar    1  UNL1       -0.0071
     30 C         142.2251  143.9428  159.5331 C.ar    1  UNL1       -0.0030
     31 C         143.0418  143.4546  158.3734 C.ar    1  UNL1        0.0028
     32 C         142.7774  143.9829  156.9947 C.ar    1  UNL1        0.0365
     33 C         141.6964  144.9995  156.7755 C.ar    1  UNL1        0.1340
     34 O         141.2100  145.6969  155.5398 O.3     1  UNL1       -0.4826
@<TRIPOS>BOND
     1    24    25    1
     2    25    26    1
     3    25    27    1
     4    27    28    1
     5    28    29   ar
     6    29    23    1
     7    23     1    1
     8     1     2    1
     9     2     3    1
    10     3     4    1
    11     4     5    1
    12     5     6    1
    13     4     7    1
    14     7     8    1
    15     8     9    1
    16     9    10   am
    17    10    11    2
    18    10    14    1
    19    14    15   ar
    20    15    16   ar
    21    16    17   ar
    22    17    18   ar
    23    18    19    1
    24    18    20   ar
    25     9    12    1
    26    12    13    1
    27    29    30   ar
    28    30    31   ar
    29    31    32   ar
    30    32    33   ar
    31    33    34    1
    32    34    25    1
    33    33    28   ar
    34     6     1    1
    35    20    14   ar
    36    13     4    1
    37    19    21    1
    38    19    22    1
@<TRIPOS>MOLECULE
*****
 34 38 0 0 0
SMALL
GASTEIGER

@<TRIPOS>ATOM
      1 N         143.0295  139.6755  160.6991 N.3     1  UNL1       -0.2690
      2 C         142.5869  140.9363  161.3806 C.3     1  UNL1        0.0724
      3 C         142.5050  140.9908  162.8774 C.3     1  UNL1        0.0175
      4 C         142.8657  139.7844  163.6926 C.3     1  UNL1        0.0060
      5 C         143.3083  138.5236  163.0111 C.3     1  UNL1        0.0175
      6 C         143.3902  138.4692  161.5144 C.3     1  UNL1        0.0724
      7 C         142.4231  141.0452  164.3742 C.3     1  UNL1        0.0217
      8 C         142.3412  141.0997  165.8710 C.3     1  UNL1        0.0937
      9 N         142.7020  139.8933  166.6862 N.am    1  UNL1       -0.2761
     10 C         142.6201  139.9478  168.1830 C.2     1  UNL1        0.2492
     11 O         142.9808  138.7415  168.9983 O.2     1  UNL1       -0.2699
     12 C         143.1446  138.6326  166.0047 C.3     1  UNL1        0.0937
     13 C         143.2265  138.5781  164.5079 C.3     1  UNL1        0.0217
     14 C         142.1775  141.2086  168.8645 C.ar    1  UNL1        0.0579
     15 C         140.7676  141.6941  168.7016 C.ar    1  UNL1        0.0253
     16 C         140.3250  142.9548  169.3831 C.ar    1  UNL1        0.1004
     17 N         141.2923  143.7302  170.2276 N.ar    1  UNL1       -0.2296
     18 C         142.7022  143.2448  170.3905 C.ar    1  UNL1        0.1255
     19 N         143.6695  144.0201  171.2350 N.pl3   1  UNL1       -0.3426
     20 C         143.1448  141.9839  169.7090 C.ar    1  UNL1        0.0384
     21 H         143.3790  144.8476  171.6823 H       1  UNL1        0.1437
     22 H         144.5948  143.7015  171.3420 H       1  UNL1        0.1437
     23 C         143.1114  139.6210  159.2023 C.3     1  UNL1        0.0989
     24 C         143.4659  135.1656  156.6914 C.3     1  UNL1        0.0439
     25 C         142.1781  135.9080  156.4904 C.3     1  UNL1        0.1374
     26 C         141.8271  134.7445  155.6111 C.3     1  UNL1        0.0439
     27 C         142.7983  136.9163  157.4117 C.3     1  UNL1        0.0691
     28 C         141.8204  138.0386  157.5963 C.ar    1  UNL1        0.0126
     29 C         141.8868  139.3065  158.3952 C.ar    1  UNL1       -0.0071
     30 C         140.7287  140.2597  158.3868 C.ar    1  UNL1       -0.0030
     31 C         139.5042  139.9451  157.5796 C.ar    1  UNL1        0.0028
     32 C         139.4378  138.6773  156.7808 C.ar    1  UNL1        0.0365
     33 C         140.5959  137.7240  156.7891 C.ar    1  UNL1        0.1340
     34 O         140.8169  136.4072  156.1057 O.3     1  UNL1       -0.4826
@<TRIPOS>BOND
     1    24    25    1
     2    25    26    1
     3    25    27    1
     4    27    28    1
     5    28    29   ar
     6    29    23    1
     7    23     1    1
     8     1     2    1
     9     2     3    1
    10     3     4    1
    11     4     5    1
    12     5     6    1
    13     4     7    1
    14     7     8    1
    15     8     9    1
    16     9    10   am
    17    10    11    2
    18    10    14    1
    19    14    15   ar
    20    15    16   ar
    21    16    17   ar
    22    17    18   ar
    23    18    19    1
    24    18    20   ar
    25     9    12    1
    26    12    13    1
    27    29    30   ar
    28    30    31   ar
    29    31    32   ar
    30    32    33   ar
    31    33    34    1
    32    34    25    1
    33    33    28   ar
    34     6     1    1
    35    20    14   ar
    36    13     4    1
    37    19    21    1
    38    19    22    1
@<TRIPOS>MOLECULE
*****
 34 38 0 0 0
SMALL
GASTEIGER

@<TRIPOS>ATOM
      1 N         140.0141  138.6881  161.0828 N.3     1  UNL1       -0.2690
      2 C         141.1119  139.3890  161.8267 C.3     1  UNL1        0.0724
      3 C         140.9817  139.6333  163.3009 C.3     1  UNL1        0.0175
      4 C         139.7536  139.1767  164.0312 C.3     1  UNL1        0.0060
      5 C         138.6558  138.4758  163.2873 C.3     1  UNL1        0.0175
      6 C         138.7861  138.2314  161.8131 C.3     1  UNL1        0.0724
      7 C         140.8515  139.8777  164.7752 C.3     1  UNL1        0.0217
      8 C         140.7213  140.1220  166.2493 C.3     1  UNL1        0.0937
      9 N         139.4932  139.6654  166.9797 N.am    1  UNL1       -0.2761
     10 C         139.3630  139.9098  168.4539 C.2     1  UNL1        0.2492
     11 O         138.1349  139.4532  169.1843 O.2     1  UNL1       -0.2699
     12 C         138.3954  138.9645  166.2358 C.3     1  UNL1        0.0937
     13 C         138.5256  138.7201  164.7615 C.3     1  UNL1        0.0217
     14 C         140.4608  140.6107  169.1978 C.ar    1  UNL1        0.0579
     15 C         140.4710  142.1082  169.2841 C.ar    1  UNL1        0.0253
     16 C         141.5688  142.8092  170.0280 C.ar    1  UNL1        0.1004
     17 N         142.6566  142.0126  170.6856 N.ar    1  UNL1       -0.2296
     18 C         142.6464  140.5152  170.5993 C.ar    1  UNL1        0.1255
     19 N         143.7341  139.7186  171.2569 N.pl3   1  UNL1       -0.3426
     20 C         141.5485  139.8142  169.8554 C.ar    1  UNL1        0.0384
     21 H         144.4546  140.1787  171.7451 H       1  UNL1        0.1437
     22 H         143.7274  138.7358  171.2002 H       1  UNL1        0.1437
     23 C         140.1443  138.4437  159.6085 C.3     1  UNL1        0.0989
     24 C         142.9257  135.4168  156.5452 C.3     1  UNL1        0.0439
     25 C         143.2723  136.8749  156.4833 C.3     1  UNL1        0.1374
     26 C         144.2911  136.4288  155.4767 C.3     1  UNL1        0.0439
     27 C         142.1811  137.0162  157.5028 C.3     1  UNL1        0.0691
     28 C         142.0663  138.4684  157.8605 C.ar    1  UNL1        0.0126
     29 C         141.1645  139.1999  158.8102 C.ar    1  UNL1       -0.0071
     30 C         141.2829  140.6875  158.9614 C.ar    1  UNL1       -0.0030
     31 C         142.3031  141.4437  158.1630 C.ar    1  UNL1        0.0028
     32 C         143.2049  140.7122  157.2134 C.ar    1  UNL1        0.0365
     33 C         143.0864  139.2246  157.0622 C.ar    1  UNL1        0.1340
     34 O         143.8318  138.2398  156.2110 O.3     1  UNL1       -0.4826
@<TRIPOS>BOND
     1    24    25    1
     2    25    26    1
     3    25    27    1
     4    27    28    1
     5    28    29   ar
     6    29    23    1
     7    23     1    1
     8     1     2    1
     9     2     3    1
    10     3     4    1
    11     4     5    1
    12     5     6    1
    13     4     7    1
    14     7     8    1
    15     8     9    1
    16     9    10   am
    17    10    11    2
    18    10    14    1
    19    14    15   ar
    20    15    16   ar
    21    16    17   ar
    22    17    18   ar
    23    18    19    1
    24    18    20   ar
    25     9    12    1
    26    12    13    1
    27    29    30   ar
    28    30    31   ar
    29    31    32   ar
    30    32    33   ar
    31    33    34    1
    32    34    25    1
    33    33    28   ar
    34     6     1    1
    35    20    14   ar
    36    13     4    1
    37    19    21    1
    38    19    22    1
@<TRIPOS>MOLECULE
*****
 34 38 0 0 0
SMALL
GASTEIGER

@<TRIPOS>ATOM
      1 N         142.4719  138.5523  161.3531 N.3     1  UNL1       -0.2690
      2 C         143.1893  139.4217  162.3427 C.3     1  UNL1        0.0724
      3 C         142.5883  139.6739  163.6936 C.3     1  UNL1        0.0175
      4 C         141.2699  139.0565  164.0550 C.3     1  UNL1        0.0060
      5 C         140.5525  138.1870  163.0655 C.3     1  UNL1        0.0175
      6 C         141.1535  137.9349  161.7145 C.3     1  UNL1        0.0724
      7 C         141.9873  139.9260  165.0447 C.3     1  UNL1        0.0217
      8 C         141.3862  140.1781  166.3956 C.3     1  UNL1        0.0937
      9 N         140.0678  139.5608  166.7570 N.am    1  UNL1       -0.2761
     10 C         139.4668  139.8129  168.1081 C.2     1  UNL1        0.2492
     11 O         138.1483  139.1956  168.4695 O.2     1  UNL1       -0.2699
     12 C         139.3504  138.6913  165.7675 C.3     1  UNL1        0.0937
     13 C         139.9514  138.4391  164.4164 C.3     1  UNL1        0.0217
     14 C         140.1842  140.6824  169.0977 C.ar    1  UNL1        0.0579
     15 C         141.1786  140.0784  170.0443 C.ar    1  UNL1        0.0253
     16 C         141.8960  140.9478  171.0339 C.ar    1  UNL1        0.1004
     17 N         141.6190  142.4215  171.0768 N.ar    1  UNL1       -0.2296
     18 C         140.6245  143.0255  170.1301 C.ar    1  UNL1        0.1255
     19 N         140.3475  144.4991  170.1730 N.pl3   1  UNL1       -0.3426
     20 C         139.9071  142.1559  169.1405 C.ar    1  UNL1        0.0384
     21 H         140.8183  145.0698  170.8225 H       1  UNL1        0.1437
     22 H         139.6948  144.8955  169.5517 H       1  UNL1        0.1437
     23 C         143.0730  138.3001  160.0021 C.3     1  UNL1        0.0989
     24 C         143.5407  134.4279  156.6750 C.3     1  UNL1        0.0439
     25 C         142.6161  135.5278  156.2447 C.3     1  UNL1        0.1374
     26 C         142.4326  134.6807  155.0204 C.3     1  UNL1        0.0439
     27 C         142.9929  136.1449  157.5589 C.3     1  UNL1        0.0691
     28 C         142.2627  137.4491  157.6849 C.ar    1  UNL1        0.0126
     29 C         142.2449  138.4891  158.7657 C.ar    1  UNL1       -0.0071
     30 C         141.3991  139.7180  158.6101 C.ar    1  UNL1       -0.0030
     31 C         140.5710  139.9070  157.3737 C.ar    1  UNL1        0.0028
     32 C         140.5888  138.8670  156.2929 C.ar    1  UNL1        0.0365
     33 C         141.4347  137.6381  156.4485 C.ar    1  UNL1        0.1340
     34 O         141.6531  136.4506  155.5584 O.3     1  UNL1       -0.4826
@<TRIPOS>BOND
     1    24    25    1
     2    25    26    1
     3    25    27    1
     4    27    28    1
     5    28    29   ar
     6    29    23    1
     7    23     1    1
     8     1     2    1
     9     2     3    1
    10     3     4    1
    11     4     5    1
    12     5     6    1
    13     4     7    1
    14     7     8    1
    15     8     9    1
    16     9    10   am
    17    10    11    2
    18    10    14    1
    19    14    15   ar
    20    15    16   ar
    21    16    17   ar
    22    17    18   ar
    23    18    19    1
    24    18    20   ar
    25     9    12    1
    26    12    13    1
    27    29    30   ar
    28    30    31   ar
    29    31    32   ar
    30    32    33   ar
    31    33    34    1
    32    34    25    1
    33    33    28   ar
    34     6     1    1
    35    20    14   ar
    36    13     4    1
    37    19    21    1
    38    19    22    1
@<TRIPOS>MOLECULE
*****
 34 38 0 0 0
SMALL
GASTEIGER

@<TRIPOS>ATOM
      1 N         140.4048  138.6719  160.9121 N.3     1  UNL1       -0.2690
      2 C         141.4328  139.4031  161.7235 C.3     1  UNL1        0.0724
      3 C         141.2095  139.6286  163.1895 C.3     1  UNL1        0.0175
      4 C         139.9582  139.1228  163.8441 C.3     1  UNL1        0.0060
      5 C         138.9302  138.3916  163.0326 C.3     1  UNL1        0.0175
      6 C         139.1535  138.1662  161.5666 C.3     1  UNL1        0.0724
      7 C         140.9863  139.8541  164.6556 C.3     1  UNL1        0.0217
      8 C         140.7630  140.0795  166.1217 C.3     1  UNL1        0.0937
      9 N         139.5117  139.5738  166.7762 N.am    1  UNL1       -0.2761
     10 C         139.2884  139.7993  168.2423 C.2     1  UNL1        0.2492
     11 O         138.0371  139.2935  168.8969 O.2     1  UNL1       -0.2699
     12 C         138.4837  138.8426  165.9648 C.3     1  UNL1        0.0937
     13 C         138.7069  138.6171  164.4987 C.3     1  UNL1        0.0217
     14 C         140.3164  140.5305  169.0538 C.ar    1  UNL1        0.0579
     15 C         140.2347  142.0210  169.2006 C.ar    1  UNL1        0.0253
     16 C         141.2627  142.7522  170.0120 C.ar    1  UNL1        0.1004
     17 N         142.3725  141.9929  170.6767 N.ar    1  UNL1       -0.2296
     18 C         142.4542  140.5023  170.5300 C.ar    1  UNL1        0.1255
     19 N         143.5639  139.7429  171.1946 N.pl3   1  UNL1       -0.3426
     20 C         141.4261  139.7711  169.7185 C.ar    1  UNL1        0.0384
     21 H         144.2387  140.2228  171.7272 H       1  UNL1        0.1437
     22 H         143.6176  138.7646  171.0983 H       1  UNL1        0.1437
     23 C         140.6281  138.4465  159.4459 C.3     1  UNL1        0.0989
     24 C         140.4471  136.0538  154.9156 C.3     1  UNL1        0.0439
     25 C         139.6566  137.3261  154.9947 C.3     1  UNL1        0.1374
     26 C         139.3130  137.0166  153.5678 C.3     1  UNL1        0.0439
     27 C         140.1653  137.3696  156.4052 C.3     1  UNL1        0.0691
     28 C         139.6174  138.6040  157.0577 C.ar    1  UNL1        0.0126
     29 C         139.7807  139.1659  158.4389 C.ar    1  UNL1       -0.0071
     30 C         139.0965  140.4473  158.8130 C.ar    1  UNL1       -0.0030
     31 C         138.2490  141.1668  157.8058 C.ar    1  UNL1        0.0028
     32 C         138.0858  140.6049  156.4247 C.ar    1  UNL1        0.0365
     33 C         138.7700  139.3235  156.0506 C.ar    1  UNL1        0.1340
     34 O         138.7942  138.5337  154.7756 O.3     1  UNL1       -0.4826
@<TRIPOS>BOND
     1    24    25    1
     2    25    26    1
     3    25    27    1
     4    27    28    1
     5    28    29   ar
     6    29    23    1
     7    23     1    1
     8     1     2    1
     9     2     3    1
    10     3     4    1
    11     4     5    1
    12     5     6    1
    13     4     7    1
    14     7     8    1
    15     8     9    1
    16     9    10   am
    17    10    11    2
    18    10    14    1
    19    14    15   ar
    20    15    16   ar
    21    16    17   ar
    22    17    18   ar
    23    18    19    1
    24    18    20   ar
    25     9    12    1
    26    12    13    1
    27    29    30   ar
    28    30    31   ar
    29    31    32   ar
    30    32    33   ar
    31    33    34    1
    32    34    25    1
    33    33    28   ar
    34     6     1    1
    35    20    14   ar
    36    13     4    1
    37    19    21    1
    38    19    22    1
@<TRIPOS>MOLECULE
*****
 34 38 0 0 0
SMALL
GASTEIGER

@<TRIPOS>ATOM
      1 N         140.8536  142.2184  161.0372 N.3     1  UNL1       -0.2690
      2 C         141.6743  142.7240  162.1864 C.3     1  UNL1        0.0724
      3 C         141.3648  142.2751  163.5837 C.3     1  UNL1        0.0175
      4 C         140.2346  141.3206  163.8319 C.3     1  UNL1        0.0060
      5 C         139.4139  140.8150  162.6826 C.3     1  UNL1        0.0175
      6 C         139.7234  141.2639  161.2853 C.3     1  UNL1        0.0724
      7 C         141.0553  141.8262  164.9812 C.3     1  UNL1        0.0217
      8 C         140.7459  141.3773  166.3785 C.3     1  UNL1        0.0937
      9 N         139.6157  140.4228  166.6267 N.am    1  UNL1       -0.2761
     10 C         139.3062  139.9739  168.0241 C.2     1  UNL1        0.2492
     11 O         138.1760  139.0194  168.2723 O.2     1  UNL1       -0.2699
     12 C         138.7950  139.9172  165.4775 C.3     1  UNL1        0.0937
     13 C         139.1044  140.3661  164.0800 C.3     1  UNL1        0.0217
     14 C         140.1269  140.4795  169.1733 C.ar    1  UNL1        0.0579
     15 C         139.6753  141.6840  169.9448 C.ar    1  UNL1        0.0253
     16 C         140.4960  142.1896  171.0940 C.ar    1  UNL1        0.1004
     17 N         141.7684  141.4907  171.4718 N.ar    1  UNL1       -0.2296
     18 C         142.2200  140.2861  170.7004 C.ar    1  UNL1        0.1255
     19 N         143.4923  139.5872  171.0781 N.pl3   1  UNL1       -0.3426
     20 C         141.3992  139.7805  169.5511 C.ar    1  UNL1        0.0384
     21 H         144.0309  139.9190  171.8324 H       1  UNL1        0.1437
     22 H         143.7886  138.7966  170.5718 H       1  UNL1        0.1437
     23 C         141.1631  142.6673  159.6397 C.3     1  UNL1        0.0989
     24 C         140.7164  137.8801  157.8608 C.3     1  UNL1        0.0439
     25 C         142.0430  138.5319  157.6059 C.3     1  UNL1        0.1374
     26 C         142.3785  137.2292  156.9423 C.3     1  UNL1        0.0439
     27 C         141.4303  139.6984  158.3227 C.3     1  UNL1        0.0691
     28 C         142.4484  140.7988  158.3721 C.ar    1  UNL1        0.0126
     29 C         142.4050  142.1810  158.9534 C.ar    1  UNL1       -0.0071
     30 C         143.6036  143.0767  158.8484 C.ar    1  UNL1       -0.0030
     31 C         144.8456  142.5903  158.1621 C.ar    1  UNL1        0.0028
     32 C         144.8889  141.2082  157.5809 C.ar    1  UNL1        0.0365
     33 C         143.6904  140.3125  157.6859 C.ar    1  UNL1        0.1340
     34 O         143.4398  138.9115  157.2123 O.3     1  UNL1       -0.4826
@<TRIPOS>BOND
     1    24    25    1
     2    25    26    1
     3    25    27    1
     4    27    28    1
     5    28    29   ar
     6    29    23    1
     7    23     1    1
     8     1     2    1
     9     2     3    1
    10     3     4    1
    11     4     5    1
    12     5     6    1
    13     4     7    1
    14     7     8    1
    15     8     9    1
    16     9    10   am
    17    10    11    2
    18    10    14    1
    19    14    15   ar
    20    15    16   ar
    21    16    17   ar
    22    17    18   ar
    23    18    19    1
    24    18    20   ar
    25     9    12    1
    26    12    13    1
    27    29    30   ar
    28    30    31   ar
    29    31    32   ar
    30    32    33   ar
    31    33    34    1
    32    34    25    1
    33    33    28   ar
    34     6     1    1
    35    20    14   ar
    36    13     4    1
    37    19    21    1
    38    19    22    1
@<TRIPOS>MOLECULE
*****
 34 38 0 0 0
SMALL
GASTEIGER

@<TRIPOS>ATOM
      1 N         140.7771  140.9162  160.9897 N.3     1  UNL1       -0.2690
      2 C         141.6715  141.4886  162.0492 C.3     1  UNL1        0.0724
      3 C         141.3449  141.2816  163.4985 C.3     1  UNL1        0.0175
      4 C         140.1240  140.5023  163.8883 C.3     1  UNL1        0.0060
      5 C         139.2296  139.9299  162.8289 C.3     1  UNL1        0.0175
      6 C         139.5562  140.1369  161.3796 C.3     1  UNL1        0.0724
      7 C         141.0184  141.0747  164.9478 C.3     1  UNL1        0.0217
      8 C         140.6918  140.8677  166.3971 C.3     1  UNL1        0.0937
      9 N         139.4709  140.0884  166.7870 N.am    1  UNL1       -0.2761
     10 C         139.1443  139.8815  168.2364 C.2     1  UNL1        0.2492
     11 O         137.9234  139.1022  168.6262 O.2     1  UNL1       -0.2699
     12 C         138.5765  139.5160  165.7276 C.3     1  UNL1        0.0937
     13 C         138.9031  139.7230  164.2782 C.3     1  UNL1        0.0217
     14 C         140.0387  140.4539  169.2958 C.ar    1  UNL1        0.0579
     15 C         139.6625  141.7321  169.9848 C.ar    1  UNL1        0.0253
     16 C         140.5568  142.3044  171.0442 C.ar    1  UNL1        0.1004
     17 N         141.8275  141.5986  171.4147 N.ar    1  UNL1       -0.2296
     18 C         142.2038  140.3205  170.7257 C.ar    1  UNL1        0.1255
     19 N         143.4744  139.6146  171.0962 N.pl3   1  UNL1       -0.3426
     20 C         141.3093  139.7481  169.6663 C.ar    1  UNL1        0.0384
     21 H         144.0615  139.9903  171.7916 H       1  UNL1        0.1437
     22 H         143.7214  138.7757  170.6440 H       1  UNL1        0.1437
     23 C         141.1036  141.1231  159.5404 C.3     1  UNL1        0.0989
     24 C         136.9029  141.8520  156.6935 C.3     1  UNL1        0.0439
     25 C         137.6629  140.5937  156.3950 C.3     1  UNL1        0.1374
     26 C         136.5876  140.3737  155.3726 C.3     1  UNL1        0.0439
     27 C         138.5793  141.0768  157.4798 C.3     1  UNL1        0.0691
     28 C         139.6808  140.0711  157.6380 C.ar    1  UNL1        0.0126
     29 C         140.8681  140.0185  158.5534 C.ar    1  UNL1       -0.0071
     30 C         141.8196  138.8612  158.4817 C.ar    1  UNL1       -0.0030
     31 C         141.5840  137.7565  157.4946 C.ar    1  UNL1        0.0028
     32 C         140.3968  137.8091  156.5793 C.ar    1  UNL1        0.0365
     33 C         139.4453  138.9664  156.6510 C.ar    1  UNL1        0.1340
     34 O         138.1981  139.2895  155.8828 O.3     1  UNL1       -0.4826
@<TRIPOS>BOND
     1    24    25    1
     2    25    26    1
     3    25    27    1
     4    27    28    1
     5    28    29   ar
     6    29    23    1
     7    23     1    1
     8     1     2    1
     9     2     3    1
    10     3     4    1
    11     4     5    1
    12     5     6    1
    13     4     7    1
    14     7     8    1
    15     8     9    1
    16     9    10   am
    17    10    11    2
    18    10    14    1
    19    14    15   ar
    20    15    16   ar
    21    16    17   ar
    22    17    18   ar
    23    18    19    1
    24    18    20   ar
    25     9    12    1
    26    12    13    1
    27    29    30   ar
    28    30    31   ar
    29    31    32   ar
    30    32    33   ar
    31    33    34    1
    32    34    25    1
    33    33    28   ar
    34     6     1    1
    35    20    14   ar
    36    13     4    1
    37    19    21    1
    38    19    22    1
@<TRIPOS>MOLECULE
*****
 34 38 0 0 0
SMALL
GASTEIGER

@<TRIPOS>ATOM
      1 N         142.0382  141.1911  160.9676 N.3     1  UNL1       -0.2690
      2 C         141.5411  142.1476  162.0105 C.3     1  UNL1        0.0724
      3 C         141.6756  141.8074  163.4652 C.3     1  UNL1        0.0175
      4 C         142.3074  140.5107  163.8769 C.3     1  UNL1        0.0060
      5 C         142.8046  139.5542  162.8339 C.3     1  UNL1        0.0175
      6 C         142.6700  139.8944  161.3792 C.3     1  UNL1        0.0724
      7 C         141.8102  141.4672  164.9200 C.3     1  UNL1        0.0217
      8 C         141.9448  141.1271  166.3746 C.3     1  UNL1        0.0937
      9 N         142.5765  139.8304  166.7863 N.am    1  UNL1       -0.2761
     10 C         142.7111  139.4902  168.2411 C.2     1  UNL1        0.2492
     11 O         143.3428  138.1935  168.6528 O.2     1  UNL1       -0.2699
     12 C         143.0737  138.8739  165.7433 C.3     1  UNL1        0.0937
     13 C         142.9391  139.2140  164.2886 C.3     1  UNL1        0.0217
     14 C         142.2139  140.4467  169.2841 C.ar    1  UNL1        0.0579
     15 C         140.8901  140.2101  169.9486 C.ar    1  UNL1        0.0253
     16 C         140.3930  141.1666  170.9916 C.ar    1  UNL1        0.1004
     17 N         141.2196  142.3598  171.3701 N.ar    1  UNL1       -0.2296
     18 C         142.5434  142.5963  170.7056 C.ar    1  UNL1        0.1255
     19 N         143.3700  143.7894  171.0840 N.pl3   1  UNL1       -0.3426
     20 C         143.0405  141.6397  169.6625 C.ar    1  UNL1        0.0384
     21 H         143.0437  144.4172  171.7686 H       1  UNL1        0.1437
     22 H         144.2388  143.9446  170.6478 H       1  UNL1        0.1437
     23 C         141.9037  141.5313  159.5128 C.3     1  UNL1        0.0989
     24 C         142.0355  137.1682  156.8244 C.3     1  UNL1        0.0439
     25 C         143.1769  138.1072  156.5688 C.3     1  UNL1        0.1374
     26 C         143.6313  137.0444  155.6128 C.3     1  UNL1        0.0439
     27 C         142.4839  138.9737  157.5783 C.3     1  UNL1        0.0691
     28 C         143.2920  140.2261  157.7467 C.ar    1  UNL1        0.0126
     29 C         143.0961  141.4388  158.6075 C.ar    1  UNL1       -0.0071
     30 C         144.0927  142.5591  158.5631 C.ar    1  UNL1       -0.0030
     31 C         145.2851  142.4665  157.6577 C.ar    1  UNL1        0.0028
     32 C         145.4810  141.2539  156.7970 C.ar    1  UNL1        0.0365
     33 C         144.4844  140.1336  156.8414 C.ar    1  UNL1        0.1340
     34 O         144.4133  138.8241  156.1135 O.3     1  UNL1       -0.4826
@<TRIPOS>BOND
     1    24    25    1
     2    25    26    1
     3    25    27    1
     4    27    28    1
     5    28    29   ar
     6    29    23    1
     7    23     1    1
     8     1     2    1
     9     2     3    1
    10     3     4    1
    11     4     5    1
    12     5     6    1
    13     4     7    1
    14     7     8    1
    15     8     9    1
    16     9    10   am
    17    10    11    2
    18    10    14    1
    19    14    15   ar
    20    15    16   ar
    21    16    17   ar
    22    17    18   ar
    23    18    19    1
    24    18    20   ar
    25     9    12    1
    26    12    13    1
    27    29    30   ar
    28    30    31   ar
    29    31    32   ar
    30    32    33   ar
    31    33    34    1
    32    34    25    1
    33    33    28   ar
    34     6     1    1
    35    20    14   ar
    36    13     4    1
    37    19    21    1
    38    19    22    1
@<TRIPOS>MOLECULE
*****
 34 38 0 0 0
SMALL
GASTEIGER

@<TRIPOS>ATOM
      1 N         139.2766  141.8894  161.3448 N.3     1  UNL1       -0.2690
      2 C         138.9562  142.6359  162.6057 C.3     1  UNL1        0.0724
      3 C         139.5889  142.2245  163.9021 C.3     1  UNL1        0.0175
      4 C         140.5419  141.0668  163.9374 C.3     1  UNL1        0.0060
      5 C         140.8623  140.3203  162.6765 C.3     1  UNL1        0.0175
      6 C         140.2297  140.7316  161.3801 C.3     1  UNL1        0.0724
      7 C         140.2215  141.8132  165.1985 C.3     1  UNL1        0.0217
      8 C         140.8542  141.4019  166.4948 C.3     1  UNL1        0.0937
      9 N         141.8072  140.2441  166.5302 N.am    1  UNL1       -0.2761
     10 C         142.4399  139.8328  167.8266 C.2     1  UNL1        0.2492
     11 O         143.3929  138.6750  167.8620 O.2     1  UNL1       -0.2699
     12 C         142.1276  139.4977  165.2692 C.3     1  UNL1        0.0937
     13 C         141.4950  139.9090  163.9728 C.3     1  UNL1        0.0217
     14 C         142.1195  140.5793  169.0876 C.ar    1  UNL1        0.0579
     15 C         141.0362  140.0826  169.9985 C.ar    1  UNL1        0.0253
     16 C         140.7158  140.8291  171.2595 C.ar    1  UNL1        0.1004
     17 N         141.4787  142.0723  171.6096 N.ar    1  UNL1       -0.2296
     18 C         142.5620  142.5689  170.6987 C.ar    1  UNL1        0.1255
     19 N         143.3249  143.8121  171.0487 N.pl3   1  UNL1       -0.3426
     20 C         142.8824  141.8224  169.4376 C.ar    1  UNL1        0.0384
     21 H         143.1146  144.3020  171.8763 H       1  UNL1        0.1437
     22 H         144.0359  144.1380  170.4508 H       1  UNL1        0.1437
     23 C         138.6440  142.3007  160.0483 C.3     1  UNL1        0.0989
     24 C         136.4483  142.5893  155.4247 C.3     1  UNL1        0.0439
     25 C         137.6942  143.4082  155.5892 C.3     1  UNL1        0.1374
     26 C         137.4386  143.7965  154.1631 C.3     1  UNL1        0.0439
     27 C         137.6894  142.8487  156.9810 C.3     1  UNL1        0.0691
     28 C         138.8790  143.4029  157.7074 C.ar    1  UNL1        0.0126
     29 C         139.3840  143.2027  159.1056 C.ar    1  UNL1       -0.0071
     30 C         140.6289  143.9046  159.5611 C.ar    1  UNL1       -0.0030
     31 C         141.3689  144.8067  158.6183 C.ar    1  UNL1        0.0028
     32 C         140.8639  145.0068  157.2201 C.ar    1  UNL1        0.0365
     33 C         139.6189  144.3049  156.7647 C.ar    1  UNL1        0.1340
     34 O         138.8867  144.3082  155.4555 O.3     1  UNL1       -0.4826
@<TRIPOS>BOND
     1    24    25    1
     2    25    26    1
     3    25    27    1
     4    27    28    1
     5    28    29   ar
     6    29    23    1
     7    23     1    1
     8     1     2    1
     9     2     3    1
    10     3     4    1
    11     4     5    1
    12     5     6    1
    13     4     7    1
    14     7     8    1
    15     8     9    1
    16     9    10   am
    17    10    11    2
    18    10    14    1
    19    14    15   ar
    20    15    16   ar
    21    16    17   ar
    22    17    18   ar
    23    18    19    1
    24    18    20   ar
    25     9    12    1
    26    12    13    1
    27    29    30   ar
    28    30    31   ar
    29    31    32   ar
    30    32    33   ar
    31    33    34    1
    32    34    25    1
    33    33    28   ar
    34     6     1    1
    35    20    14   ar
    36    13     4    1
    37    19    21    1
    38    19    22    1
