@<TRIPOS>MOLECULE
*****
 24 27 0 0 0
SMALL
GASTEIGER

@<TRIPOS>ATOM
      1 C         138.5529  139.2417  165.6064 C.ar    1  UNL1       -0.0207
      2 C         138.9096  137.9275  164.9775 C.ar    1  UNL1       -0.0027
      3 C         138.9724  137.8033  163.4840 C.ar    1  UNL1        0.0188
      4 C         138.6786  138.9934  162.6194 C.ar    1  UNL1        0.0813
      5 N         138.7414  138.8692  161.1259 N.ar    1  UNL1       -0.2438
      6 C         138.4476  140.0593  160.2613 C.ar    1  UNL1        0.0988
      7 C         138.0909  141.3735  160.8904 C.ar    1  UNL1        0.0207
      8 C         138.0281  141.4976  162.3839 C.ar    1  UNL1        0.0031
      9 C         138.3219  140.3076  163.2484 C.ar    1  UNL1        0.0174
     10 C         138.2591  140.4317  164.7419 C.ar    1  UNL1       -0.0027
     11 C         138.5104  139.9351  158.7678 C.ar    1  UNL1        0.0989
     12 C         137.7519  140.8975  157.9026 C.ar    1  UNL1        0.0207
     13 C         137.8147  140.7734  156.4091 C.ar    1  UNL1        0.0032
     14 C         138.6360  139.6869  155.7807 C.ar    1  UNL1        0.0207
     15 C         139.3945  138.7245  156.6458 C.ar    1  UNL1        0.0989
     16 N         139.3317  138.8486  158.1394 N.ar    1  UNL1       -0.2423
     17 C         138.4900  139.3659  167.1000 C.3     1  UNL1        0.0437
     18 C         139.7376  139.6522  167.8820 C.3     1  UNL1        0.0768
     19 C         140.8852  142.4091  166.5660 C.3     1  UNL1        0.0173
     20 C         140.4232  142.2339  167.9823 C.3     1  UNL1        0.0576
     21 C         140.4076  143.2951  169.0423 C.3     1  UNL1        0.0174
     22 C         139.8704  142.6837  170.3024 C.3     1  UNL1        0.0187
     23 C         139.5541  141.2445  170.0210 C.3     1  UNL1        0.0721
     24 N         139.8957  140.9667  168.5871 N.3     1  UNL1       -0.2737
@<TRIPOS>BOND
     1    20    19    1
     2    20    21    1
     3    21    22    1
     4    22    23    1
     5    23    24    1
     6    24    18    1
     7    18    17    1
     8    17     1    1
     9     1     2   ar
    10     2     3   ar
    11     3     4   ar
    12     4     5   ar
    13     5     6   ar
    14     6    11    1
    15    11    12   ar
    16    12    13   ar
    17    13    14   ar
    18    14    15   ar
    19    15    16   ar
    20     6     7   ar
    21     7     8   ar
    22     8     9   ar
    23     9    10   ar
    24    24    20    1
    25    10     1   ar
    26     9     4   ar
    27    16    11   ar
@<TRIPOS>MOLECULE
*****
 24 27 0 0 0
SMALL
GASTEIGER

@<TRIPOS>ATOM
      1 C         139.4952  140.1547  167.5508 C.ar    1  UNL1       -0.0207
      2 C         140.3148  141.2283  166.8985 C.ar    1  UNL1       -0.0027
      3 C         140.6740  141.1195  165.4463 C.ar    1  UNL1        0.0188
      4 C         140.2138  139.9371  164.6463 C.ar    1  UNL1        0.0813
      5 N         140.5731  139.8283  163.1940 N.ar    1  UNL1       -0.2438
      6 C         140.1129  138.6458  162.3941 C.ar    1  UNL1        0.0988
      7 C         139.2933  137.5721  163.0464 C.ar    1  UNL1        0.0207
      8 C         138.9340  137.6809  164.4987 C.ar    1  UNL1        0.0031
      9 C         139.3943  138.8634  165.2986 C.ar    1  UNL1        0.0174
     10 C         139.0350  138.9722  166.7508 C.ar    1  UNL1       -0.0027
     11 C         140.4722  138.5370  160.9418 C.ar    1  UNL1        0.0989
     12 C         141.8958  138.2920  160.5377 C.ar    1  UNL1        0.0207
     13 C         142.2551  138.1832  159.0855 C.ar    1  UNL1        0.0032
     14 C         141.1908  138.3194  158.0373 C.ar    1  UNL1        0.0207
     15 C         139.7672  138.5643  158.4413 C.ar    1  UNL1        0.0989
     16 N         139.4078  138.6731  159.8936 N.ar    1  UNL1       -0.2423
     17 C         139.1359  140.2634  169.0031 C.3     1  UNL1        0.0437
     18 C         140.2001  140.1269  170.0513 C.3     1  UNL1        0.0768
     19 C         140.1016  143.3768  170.3303 C.3     1  UNL1        0.0173
     20 C         141.3381  142.5427  170.1715 C.3     1  UNL1        0.0576
     21 C         142.7464  143.0558  170.1131 C.3     1  UNL1        0.0174
     22 C         143.6621  141.8791  169.9487 C.3     1  UNL1        0.0187
     23 C         142.8196  140.6387  169.9056 C.3     1  UNL1        0.0721
     24 N         141.3834  141.0489  170.0433 N.3     1  UNL1       -0.2737
@<TRIPOS>BOND
     1    20    19    1
     2    20    21    1
     3    21    22    1
     4    22    23    1
     5    23    24    1
     6    24    18    1
     7    18    17    1
     8    17     1    1
     9     1     2   ar
    10     2     3   ar
    11     3     4   ar
    12     4     5   ar
    13     5     6   ar
    14     6    11    1
    15    11    12   ar
    16    12    13   ar
    17    13    14   ar
    18    14    15   ar
    19    15    16   ar
    20     6     7   ar
    21     7     8   ar
    22     8     9   ar
    23     9    10   ar
    24    24    20    1
    25    10     1   ar
    26     9     4   ar
    27    16    11   ar
@<TRIPOS>MOLECULE
*****
 24 27 0 0 0
SMALL
GASTEIGER

@<TRIPOS>ATOM
      1 C         142.7314  138.4631  165.3671 C.ar    1  UNL1       -0.0207
      2 C         141.5670  137.5947  164.9928 C.ar    1  UNL1       -0.0027
      3 C         141.2678  137.3231  163.5483 C.ar    1  UNL1        0.0188
      4 C         142.1330  137.9199  162.4781 C.ar    1  UNL1        0.0813
      5 N         141.8337  137.6482  161.0335 N.ar    1  UNL1       -0.2438
      6 C         142.6988  138.2450  159.9633 C.ar    1  UNL1        0.0988
      7 C         143.8633  139.1134  160.3376 C.ar    1  UNL1        0.0207
      8 C         144.1625  139.3850  161.7821 C.ar    1  UNL1        0.0031
      9 C         143.2973  138.7882  162.8524 C.ar    1  UNL1        0.0174
     10 C         143.5966  139.0598  164.2969 C.ar    1  UNL1       -0.0027
     11 C         142.3996  137.9734  158.5188 C.ar    1  UNL1        0.0989
     12 C         141.4421  138.8546  157.7726 C.ar    1  UNL1        0.0207
     13 C         141.1429  138.5830  156.3281 C.ar    1  UNL1        0.0032
     14 C         141.8011  137.4302  155.6297 C.ar    1  UNL1        0.0207
     15 C         142.7586  136.5490  156.3758 C.ar    1  UNL1        0.0989
     16 N         143.0579  136.8206  157.8204 N.ar    1  UNL1       -0.2423
     17 C         143.0307  138.7347  166.8117 C.3     1  UNL1        0.0437
     18 C         142.6137  140.0350  167.4323 C.3     1  UNL1        0.0768
     19 C         139.4556  140.2158  166.6308 C.3     1  UNL1        0.0173
     20 C         140.0096  140.1559  168.0234 C.3     1  UNL1        0.0576
     21 C         139.2094  140.1684  169.2920 C.3     1  UNL1        0.0174
     22 C         140.1665  140.0931  170.4446 C.3     1  UNL1        0.0187
     23 C         141.5583  140.0340  169.8882 C.3     1  UNL1        0.0721
     24 N         141.4613  140.0728  168.3918 N.3     1  UNL1       -0.2737
@<TRIPOS>BOND
     1    20    19    1
     2    20    21    1
     3    21    22    1
     4    22    23    1
     5    23    24    1
     6    24    18    1
     7    18    17    1
     8    17     1    1
     9     1     2   ar
    10     2     3   ar
    11     3     4   ar
    12     4     5   ar
    13     5     6   ar
    14     6    11    1
    15    11    12   ar
    16    12    13   ar
    17    13    14   ar
    18    14    15   ar
    19    15    16   ar
    20     6     7   ar
    21     7     8   ar
    22     8     9   ar
    23     9    10   ar
    24    24    20    1
    25    10     1   ar
    26     9     4   ar
    27    16    11   ar
@<TRIPOS>MOLECULE
*****
 24 27 0 0 0
SMALL
GASTEIGER

@<TRIPOS>ATOM
      1 C         139.3821  137.6655  164.5076 C.ar    1  UNL1       -0.0207
      2 C         140.8675  137.4854  164.6122 C.ar    1  UNL1       -0.0027
      3 C         141.7268  137.6168  163.3898 C.ar    1  UNL1        0.0188
      4 C         141.1007  137.9283  162.0628 C.ar    1  UNL1        0.0813
      5 N         141.9601  138.0597  160.8404 N.ar    1  UNL1       -0.2438
      6 C         141.3339  138.3712  159.5134 C.ar    1  UNL1        0.0988
      7 C         139.8484  138.5513  159.4088 C.ar    1  UNL1        0.0207
      8 C         138.9891  138.4199  160.6312 C.ar    1  UNL1        0.0031
      9 C         139.6153  138.1084  161.9582 C.ar    1  UNL1        0.0174
     10 C         138.7560  137.9770  163.1806 C.ar    1  UNL1       -0.0027
     11 C         142.1932  138.5026  158.2910 C.ar    1  UNL1        0.0989
     12 C         142.3956  137.3235  157.3861 C.ar    1  UNL1        0.0207
     13 C         143.2549  137.4549  156.1637 C.ar    1  UNL1        0.0032
     14 C         143.9119  138.7654  155.8461 C.ar    1  UNL1        0.0207
     15 C         143.7096  139.9445  156.7510 C.ar    1  UNL1        0.0989
     16 N         142.8503  139.8132  157.9734 N.ar    1  UNL1       -0.2423
     17 C         138.5227  137.5340  165.7300 C.3     1  UNL1        0.0437
     18 C         138.0077  138.7621  166.4203 C.3     1  UNL1        0.0768
     19 C         138.7005  141.3477  164.5537 C.3     1  UNL1        0.0173
     20 C         139.2678  141.0644  165.9131 C.3     1  UNL1        0.0576
     21 C         140.2530  141.9197  166.6531 C.3     1  UNL1        0.0174
     22 C         140.5436  141.2598  167.9686 C.3     1  UNL1        0.0187
     23 C         139.7378  139.9966  168.0414 C.3     1  UNL1        0.0721
     24 N         138.9494  139.8759  166.7711 N.3     1  UNL1       -0.2737
@<TRIPOS>BOND
     1    20    19    1
     2    20    21    1
     3    21    22    1
     4    22    23    1
     5    23    24    1
     6    24    18    1
     7    18    17    1
     8    17     1    1
     9     1     2   ar
    10     2     3   ar
    11     3     4   ar
    12     4     5   ar
    13     5     6   ar
    14     6    11    1
    15    11    12   ar
    16    12    13   ar
    17    13    14   ar
    18    14    15   ar
    19    15    16   ar
    20     6     7   ar
    21     7     8   ar
    22     8     9   ar
    23     9    10   ar
    24    24    20    1
    25    10     1   ar
    26     9     4   ar
    27    16    11   ar
@<TRIPOS>MOLECULE
*****
 24 27 0 0 0
SMALL
GASTEIGER

@<TRIPOS>ATOM
      1 C         139.3865  137.7079  163.9460 C.ar    1  UNL1       -0.0207
      2 C         138.4642  137.9279  162.7837 C.ar    1  UNL1       -0.0027
      3 C         139.0275  138.1813  161.4169 C.ar    1  UNL1        0.0188
      4 C         140.5131  138.2149  161.2123 C.ar    1  UNL1        0.0813
      5 N         141.0764  138.4684  159.8453 N.ar    1  UNL1       -0.2438
      6 C         142.5620  138.5019  159.6407 C.ar    1  UNL1        0.0988
      7 C         143.4843  138.2819  160.8031 C.ar    1  UNL1        0.0207
      8 C         142.9210  138.0284  162.1700 C.ar    1  UNL1        0.0031
      9 C         141.4354  137.9949  162.3746 C.ar    1  UNL1        0.0174
     10 C         140.8721  137.7414  163.7414 C.ar    1  UNL1       -0.0027
     11 C         143.1253  138.7554  158.2739 C.ar    1  UNL1        0.0989
     12 C         142.8280  137.8050  157.1520 C.ar    1  UNL1        0.0207
     13 C         143.3913  138.0584  155.7852 C.ar    1  UNL1        0.0032
     14 C         144.2520  139.2623  155.5400 C.ar    1  UNL1        0.0207
     15 C         144.5493  140.2126  156.6618 C.ar    1  UNL1        0.0989
     16 N         143.9859  139.9592  158.0287 N.ar    1  UNL1       -0.2423
     17 C         138.8232  137.4544  165.3130 C.3     1  UNL1        0.0437
     18 C         138.2260  138.5836  166.0993 C.3     1  UNL1        0.0768
     19 C         138.1424  141.2889  164.2763 C.3     1  UNL1        0.0173
     20 C         138.9821  141.0767  165.5010 C.3     1  UNL1        0.0576
     21 C         139.9307  142.0707  166.1027 C.3     1  UNL1        0.0174
     22 C         140.5555  141.4415  167.3126 C.3     1  UNL1        0.0187
     23 C         139.9929  140.0585  167.4586 C.3     1  UNL1        0.0721
     24 N         139.0205  139.8332  166.3389 N.3     1  UNL1       -0.2737
@<TRIPOS>BOND
     1    20    19    1
     2    20    21    1
     3    21    22    1
     4    22    23    1
     5    23    24    1
     6    24    18    1
     7    18    17    1
     8    17     1    1
     9     1     2   ar
    10     2     3   ar
    11     3     4   ar
    12     4     5   ar
    13     5     6   ar
    14     6    11    1
    15    11    12   ar
    16    12    13   ar
    17    13    14   ar
    18    14    15   ar
    19    15    16   ar
    20     6     7   ar
    21     7     8   ar
    22     8     9   ar
    23     9    10   ar
    24    24    20    1
    25    10     1   ar
    26     9     4   ar
    27    16    11   ar
@<TRIPOS>MOLECULE
*****
 24 27 0 0 0
SMALL
GASTEIGER

@<TRIPOS>ATOM
      1 C         138.4990  139.0494  165.5678 C.ar    1  UNL1       -0.0207
      2 C         138.8959  137.7570  164.9182 C.ar    1  UNL1       -0.0027
      3 C         138.9793  137.6635  163.4234 C.ar    1  UNL1        0.0188
      4 C         138.6659  138.8625  162.5783 C.ar    1  UNL1        0.0813
      5 N         138.7493  138.7689  161.0835 N.ar    1  UNL1       -0.2438
      6 C         138.4359  139.9679  160.2384 C.ar    1  UNL1        0.0988
      7 C         138.0391  141.2604  160.8881 C.ar    1  UNL1        0.0207
      8 C         137.9557  141.3539  162.3828 C.ar    1  UNL1        0.0031
      9 C         138.2691  140.1549  163.2279 C.ar    1  UNL1        0.0174
     10 C         138.1857  140.2484  164.7227 C.ar    1  UNL1       -0.0027
     11 C         138.5194  139.8745  158.7437 C.ar    1  UNL1        0.0989
     12 C         139.5938  139.0469  158.1027 C.ar    1  UNL1        0.0207
     13 C         139.6773  138.9534  156.6080 C.ar    1  UNL1        0.0032
     14 C         138.6863  139.6875  155.7541 C.ar    1  UNL1        0.0207
     15 C         137.6118  140.5150  156.3950 C.ar    1  UNL1        0.0989
     16 N         137.5284  140.6085  157.8898 N.ar    1  UNL1       -0.2423
     17 C         138.4156  139.1430  167.0626 C.3     1  UNL1        0.0437
     18 C         139.4461  139.9230  167.8239 C.3     1  UNL1        0.0768
     19 C         140.1688  142.8399  166.5518 C.3     1  UNL1        0.0173
     20 C         141.0712  141.6421  166.5794 C.3     1  UNL1        0.0576
     21 C         142.4642  141.5746  166.0270 C.3     1  UNL1        0.0174
     22 C         142.9929  140.1921  166.2704 C.3     1  UNL1        0.0187
     23 C         141.9266  139.4051  166.9732 C.3     1  UNL1        0.0721
     24 N         140.7390  140.3013  167.1641 N.3     1  UNL1       -0.2737
@<TRIPOS>BOND
     1    20    19    1
     2    20    21    1
     3    21    22    1
     4    22    23    1
     5    23    24    1
     6    24    18    1
     7    18    17    1
     8    17     1    1
     9     1     2   ar
    10     2     3   ar
    11     3     4   ar
    12     4     5   ar
    13     5     6   ar
    14     6    11    1
    15    11    12   ar
    16    12    13   ar
    17    13    14   ar
    18    14    15   ar
    19    15    16   ar
    20     6     7   ar
    21     7     8   ar
    22     8     9   ar
    23     9    10   ar
    24    24    20    1
    25    10     1   ar
    26     9     4   ar
    27    16    11   ar
@<TRIPOS>MOLECULE
*****
 24 27 0 0 0
SMALL
GASTEIGER

@<TRIPOS>ATOM
      1 C         142.2953  139.9810  167.3282 C.ar    1  UNL1       -0.0207
      2 C         141.0636  139.5652  166.5799 C.ar    1  UNL1       -0.0027
      3 C         140.6864  140.2657  165.3083 C.ar    1  UNL1        0.0188
      4 C         141.5409  141.3819  164.7850 C.ar    1  UNL1        0.0813
      5 N         141.1636  142.0823  163.5133 N.ar    1  UNL1       -0.2438
      6 C         142.0181  143.1985  162.9899 C.ar    1  UNL1        0.0988
      7 C         143.2499  143.6143  163.7383 C.ar    1  UNL1        0.0207
      8 C         143.6271  142.9139  165.0099 C.ar    1  UNL1        0.0031
      9 C         142.7726  141.7977  165.5333 C.ar    1  UNL1        0.0174
     10 C         143.1498  141.0972  166.8049 C.ar    1  UNL1       -0.0027
     11 C         141.6409  143.8990  161.7183 C.ar    1  UNL1        0.0989
     12 C         142.2988  143.5139  160.4264 C.ar    1  UNL1        0.0207
     13 C         141.9216  144.2143  159.1547 C.ar    1  UNL1        0.0032
     14 C         140.8866  145.2998  159.1750 C.ar    1  UNL1        0.0207
     15 C         140.2287  145.6849  160.4668 C.ar    1  UNL1        0.0989
     16 N         140.6059  144.9845  161.7385 N.ar    1  UNL1       -0.2423
     17 C         142.6725  139.2806  168.5999 C.3     1  UNL1        0.0437
     18 C         142.2134  139.8244  169.9203 C.3     1  UNL1        0.0768
     19 C         139.0172  140.4821  169.8895 C.3     1  UNL1        0.0173
     20 C         140.1239  141.4904  169.9809 C.3     1  UNL1        0.0576
     21 C         139.9559  142.9781  170.0741 C.3     1  UNL1        0.0174
     22 C         141.3212  143.5952  170.1459 C.3     1  UNL1        0.0187
     23 C         142.3331  142.4889  170.0970 C.3     1  UNL1        0.0721
     24 N         141.5930  141.1881  169.9950 N.3     1  UNL1       -0.2737
@<TRIPOS>BOND
     1    20    19    1
     2    20    21    1
     3    21    22    1
     4    22    23    1
     5    23    24    1
     6    24    18    1
     7    18    17    1
     8    17     1    1
     9     1     2   ar
    10     2     3   ar
    11     3     4   ar
    12     4     5   ar
    13     5     6   ar
    14     6    11    1
    15    11    12   ar
    16    12    13   ar
    17    13    14   ar
    18    14    15   ar
    19    15    16   ar
    20     6     7   ar
    21     7     8   ar
    22     8     9   ar
    23     9    10   ar
    24    24    20    1
    25    10     1   ar
    26     9     4   ar
    27    16    11   ar
@<TRIPOS>MOLECULE
*****
 24 27 0 0 0
SMALL
GASTEIGER

@<TRIPOS>ATOM
      1 C         142.7568  138.4748  165.3277 C.ar    1  UNL1       -0.0207
      2 C         141.5764  137.6202  164.9723 C.ar    1  UNL1       -0.0027
      3 C         141.2471  137.3575  163.5327 C.ar    1  UNL1        0.0188
      4 C         142.0981  137.9494  162.4485 C.ar    1  UNL1        0.0813
      5 N         141.7687  137.6866  161.0089 N.ar    1  UNL1       -0.2438
      6 C         142.6198  138.2784  159.9247 C.ar    1  UNL1        0.0988
      7 C         143.8002  139.1331  160.2802 C.ar    1  UNL1        0.0207
      8 C         144.1295  139.3958  161.7198 C.ar    1  UNL1        0.0031
      9 C         143.2785  138.8040  162.8039 C.ar    1  UNL1        0.0174
     10 C         143.6078  139.0667  164.2435 C.ar    1  UNL1       -0.0027
     11 C         142.2904  138.0157  158.4851 C.ar    1  UNL1        0.0989
     12 C         141.1970  138.7915  157.8122 C.ar    1  UNL1        0.0207
     13 C         140.8677  138.5287  156.3726 C.ar    1  UNL1        0.0032
     14 C         141.6317  137.4903  155.6058 C.ar    1  UNL1        0.0207
     15 C         142.7251  136.7145  156.2787 C.ar    1  UNL1        0.0989
     16 N         143.0545  136.9773  157.7184 N.ar    1  UNL1       -0.2423
     17 C         143.0862  138.7376  166.7674 C.3     1  UNL1        0.0437
     18 C         142.6184  140.0019  167.4251 C.3     1  UNL1        0.0768
     19 C         139.3666  139.7908  167.2502 C.3     1  UNL1        0.0173
     20 C         140.2176  140.8442  166.6052 C.3     1  UNL1        0.0576
     21 C         139.7234  141.9854  165.7666 C.3     1  UNL1        0.0174
     22 C         140.9127  142.7878  165.3286 C.3     1  UNL1        0.0187
     23 C         142.1420  142.1424  165.8966 C.3     1  UNL1        0.0721
     24 N         141.7123  140.9412  166.6856 N.3     1  UNL1       -0.2737
@<TRIPOS>BOND
     1    20    19    1
     2    20    21    1
     3    21    22    1
     4    22    23    1
     5    23    24    1
     6    24    18    1
     7    18    17    1
     8    17     1    1
     9     1     2   ar
    10     2     3   ar
    11     3     4   ar
    12     4     5   ar
    13     5     6   ar
    14     6    11    1
    15    11    12   ar
    16    12    13   ar
    17    13    14   ar
    18    14    15   ar
    19    15    16   ar
    20     6     7   ar
    21     7     8   ar
    22     8     9   ar
    23     9    10   ar
    24    24    20    1
    25    10     1   ar
    26     9     4   ar
    27    16    11   ar
@<TRIPOS>MOLECULE
*****
 24 27 0 0 0
SMALL
GASTEIGER

@<TRIPOS>ATOM
      1 C         142.9275  142.6047  165.8289 C.ar    1  UNL1       -0.0207
      2 C         144.1755  142.6029  164.9968 C.ar    1  UNL1       -0.0027
      3 C         144.1260  143.0617  163.5696 C.ar    1  UNL1        0.0188
      4 C         142.8284  143.5223  162.9744 C.ar    1  UNL1        0.0813
      5 N         142.7789  143.9811  161.5471 N.ar    1  UNL1       -0.2438
      6 C         141.4814  144.4416  160.9520 C.ar    1  UNL1        0.0988
      7 C         140.2333  144.4434  161.7841 C.ar    1  UNL1        0.0207
      8 C         140.2828  143.9846  163.2113 C.ar    1  UNL1        0.0031
      9 C         141.5804  143.5240  163.8065 C.ar    1  UNL1        0.0174
     10 C         141.6299  143.0653  165.2337 C.ar    1  UNL1       -0.0027
     11 C         141.4318  144.9004  159.5247 C.ar    1  UNL1        0.0989
     12 C         140.2320  145.6441  159.0172 C.ar    1  UNL1        0.0207
     13 C         140.1825  146.1028  157.5900 C.ar    1  UNL1        0.0032
     14 C         141.3327  145.8180  156.6702 C.ar    1  UNL1        0.0207
     15 C         142.5324  145.0743  157.1777 C.ar    1  UNL1        0.0989
     16 N         142.5820  144.6155  158.6050 N.ar    1  UNL1       -0.2423
     17 C         142.9770  142.1459  167.2562 C.3     1  UNL1        0.0437
     18 C         142.7854  140.6950  167.5847 C.3     1  UNL1        0.0768
     19 C         139.6328  140.2689  166.8573 C.3     1  UNL1        0.0173
     20 C         140.7891  139.5616  166.2150 C.3     1  UNL1        0.0576
     21 C         140.6995  138.5344  165.1257 C.3     1  UNL1        0.0174
     22 C         142.0932  138.0953  164.7867 C.3     1  UNL1        0.0187
     23 C         143.0442  138.8513  165.6666 C.3     1  UNL1        0.0721
     24 N         142.2382  139.7575  166.5493 N.3     1  UNL1       -0.2737
@<TRIPOS>BOND
     1    20    19    1
     2    20    21    1
     3    21    22    1
     4    22    23    1
     5    23    24    1
     6    24    18    1
     7    18    17    1
     8    17     1    1
     9     1     2   ar
    10     2     3   ar
    11     3     4   ar
    12     4     5   ar
    13     5     6   ar
    14     6    11    1
    15    11    12   ar
    16    12    13   ar
    17    13    14   ar
    18    14    15   ar
    19    15    16   ar
    20     6     7   ar
    21     7     8   ar
    22     8     9   ar
    23     9    10   ar
    24    24    20    1
    25    10     1   ar
    26     9     4   ar
    27    16    11   ar
