@<TRIPOS>MOLECULE
*****
 44 48 0 0 0
SMALL
GASTEIGER

@<TRIPOS>ATOM
      1 N         140.1801  143.2383  164.0922 N.pl3   1  UNL1       -0.3035
      2 C         141.5429  143.5581  163.5532 C.3     1  UNL1        0.1082
      3 C         141.6815  144.3168  162.2666 C.3     1  UNL1        0.0938
      4 N         140.4574  144.7556  161.5191 N.3     1  UNL1       -0.2695
      5 C         139.0945  144.4358  162.0581 C.3     1  UNL1        0.0938
      6 C         138.9559  143.6772  163.3446 C.3     1  UNL1        0.1082
      7 C         140.2165  142.3924  167.9694 C.ar    1  UNL1       -0.0209
      8 C         140.3551  143.1511  166.6829 C.ar    1  UNL1        0.0118
      9 C         140.0415  142.4797  165.3787 C.ar    1  UNL1        0.0655
     10 C         139.5892  141.0495  165.3611 C.ar    1  UNL1        0.0941
     11 N         139.2755  140.3781  164.0570 N.ar    1  UNL1       -0.2484
     12 C         138.8232  138.9481  164.0394 C.ar    1  UNL1        0.0594
     13 C         138.6846  138.1894  165.3260 C.ar    1  UNL1        0.0147
     14 C         138.9983  138.8608  166.6301 C.ar    1  UNL1        0.0027
     15 C         139.4505  140.2909  166.6477 C.ar    1  UNL1        0.0186
     16 C         139.7642  140.9624  167.9519 C.ar    1  UNL1       -0.0027
     17 C         140.5301  143.0639  169.2736 C.3     1  UNL1        0.0264
     18 C         141.9243  143.0168  169.8252 C.3     1  UNL1        0.0047
     19 C         143.0663  140.6960  169.5811 C.3     1  UNL1        0.0000
     20 C         142.9558  142.1378  169.1824 C.3     1  UNL1        0.0003
     21 C         138.5096  138.2766  162.7352 C.3     1  UNL1        0.0517
     22 C         138.7753  138.9887  161.4421 C.3     1  UNL1        0.0480
     23 C         137.7607  139.9462  160.8909 C.2     1  UNL1        0.0507
     24 O         137.1984  141.0283  161.7645 O.co2   1  UNL1       -0.5492
     25 O         137.3084  139.8217  159.4662 O.co2   1  UNL1       -0.5492
     26 C         140.5960  145.5143  160.2325 C.3     1  UNL1        0.0769
     27 C         140.4816  144.7946  158.9214 C.3     1  UNL1        0.0437
     28 C         141.0111  143.3980  158.7837 C.ar    1  UNL1       -0.0206
     29 C         140.0623  142.2367  158.7439 C.ar    1  UNL1       -0.0011
     30 C         140.5918  140.8401  158.6063 C.ar    1  UNL1        0.0366
     31 C         142.0700  140.6046  158.5084 C.ar    1  UNL1        0.1385
     32 C         143.0187  141.7658  158.5482 C.ar    1  UNL1        0.0366
     33 C         142.4892  143.1625  158.6859 C.ar    1  UNL1       -0.0011
     34 O         142.5995  139.2079  158.3707 O.3     1  UNL1       -0.4754
     35 C         142.1817  138.1479  159.3464 C.3     1  UNL1        0.2068
     36 C         143.1413  137.6770  160.3988 C.3     1  UNL1        0.0646
     37 C         144.0754  138.6519  161.0522 C.3     1  UNL1        0.0759
     38 N         143.8003  139.1359  162.4451 N.3     1  UNL1       -0.2726
     39 C         144.4464  140.4362  162.8217 C.3     1  UNL1        0.0721
     40 C         144.3672  141.1773  164.1234 C.3     1  UNL1        0.0173
     41 C         143.6224  140.8012  165.3700 C.3     1  UNL1        0.0015
     42 C         142.7729  139.5911  165.6227 C.3     1  UNL1        0.0015
     43 C         142.4583  138.4582  164.6912 C.3     1  UNL1        0.0173
     44 C         142.9156  138.2556  163.2771 C.3     1  UNL1        0.0721
@<TRIPOS>UNITY_ATOM_ATTR
24 1
charge -1
@<TRIPOS>BOND
     1    19    20    1
     2    20    18    1
     3    18    17    1
     4    17     7    1
     5     7     8   ar
     6     8     9   ar
     7     9     1    1
     8     1     2    1
     9     2     3    1
    10     3     4    1
    11     4    26    1
    12    26    27    1
    13    27    28    1
    14    28    29   ar
    15    29    30   ar
    16    30    31   ar
    17    31    34    1
    18    34    35    1
    19    35    36    1
    20    36    37    1
    21    37    38    1
    22    38    39    1
    23    39    40    1
    24    40    41    1
    25    41    42    1
    26    42    43    1
    27    43    44    1
    28    31    32   ar
    29    32    33   ar
    30     4     5    1
    31     5     6    1
    32     9    10   ar
    33    10    11   ar
    34    11    12   ar
    35    12    21    1
    36    21    22    1
    37    22    23    1
    38    23    24   ar
    39    23    25   ar
    40    12    13   ar
    41    13    14   ar
    42    14    15   ar
    43    15    16   ar
    44    16     7   ar
    45     6     1    1
    46    15    10   ar
    47    33    28   ar
    48    44    38    1
@<TRIPOS>MOLECULE
*****
 44 48 0 0 0
SMALL
GASTEIGER

@<TRIPOS>ATOM
      1 N         141.3562  143.1274  164.1743 N.pl3   1  UNL1       -0.3035
      2 C         142.4559  143.6679  163.3093 C.3     1  UNL1        0.1082
      3 C         142.1237  144.4995  162.1059 C.3     1  UNL1        0.0938
      4 N         140.6916  144.7905  161.7675 N.3     1  UNL1       -0.2695
      5 C         139.5918  144.2500  162.6326 C.3     1  UNL1        0.0938
      6 C         139.9240  143.4185  163.8360 C.3     1  UNL1        0.1082
      7 C         142.0103  142.0840  167.9470 C.ar    1  UNL1       -0.0209
      8 C         141.6780  142.9156  166.7436 C.ar    1  UNL1        0.0118
      9 C         141.6885  142.2959  165.3777 C.ar    1  UNL1        0.0655
     10 C         142.0312  140.8446  165.2151 C.ar    1  UNL1        0.0941
     11 N         142.0417  140.2249  163.8492 N.ar    1  UNL1       -0.2484
     12 C         142.3844  138.7737  163.6866 C.ar    1  UNL1        0.0594
     13 C         142.7167  137.9422  164.8900 C.ar    1  UNL1        0.0147
     14 C         142.7062  138.5619  166.2560 C.ar    1  UNL1        0.0027
     15 C         142.3635  140.0131  166.4185 C.ar    1  UNL1        0.0186
     16 C         142.3530  140.6328  167.7845 C.ar    1  UNL1       -0.0027
     17 C         141.9998  142.7038  169.3130 C.3     1  UNL1        0.0264
     18 C         140.8356  142.4760  170.2310 C.3     1  UNL1        0.0047
     19 C         139.3074  140.3942  169.9468 C.3     1  UNL1        0.0000
     20 C         139.5777  141.8499  169.7060 C.3     1  UNL1        0.0003
     21 C         142.3949  138.1540  162.3206 C.3     1  UNL1        0.0517
     22 C         143.6617  138.1297  161.5178 C.3     1  UNL1        0.0480
     23 C         144.0821  139.3434  160.7431 C.2     1  UNL1        0.0507
     24 O         144.1269  139.2982  159.2444 O.co2   1  UNL1       -0.5492
     25 O         144.4576  140.6023  161.4670 O.co2   1  UNL1       -0.5492
     26 C         140.3594  145.6220  160.5641 C.3     1  UNL1        0.0769
     27 C         140.7112  145.1294  159.1918 C.3     1  UNL1        0.0437
     28 C         140.4971  143.6884  158.8343 C.ar    1  UNL1       -0.0206
     29 C         139.1101  143.1770  158.5798 C.ar    1  UNL1       -0.0011
     30 C         138.8959  141.7360  158.2223 C.ar    1  UNL1        0.0366
     31 C         140.0688  140.8065  158.1195 C.ar    1  UNL1        0.1385
     32 C         141.4557  141.3180  158.3740 C.ar    1  UNL1        0.0366
     33 C         141.6698  142.7590  158.7315 C.ar    1  UNL1       -0.0011
     34 O         139.8547  139.3655  157.7621 O.3     1  UNL1       -0.4754
     35 C         139.5926  138.3563  158.8404 C.3     1  UNL1        0.2068
     36 C         139.6188  138.7739  160.2809 C.3     1  UNL1        0.0646
     37 C         138.3872  138.6322  161.1253 C.3     1  UNL1        0.0759
     38 N         138.4727  138.8112  162.6122 N.3     1  UNL1       -0.2726
     39 C         138.8956  137.6005  163.3902 C.3     1  UNL1        0.0721
     40 C         139.0741  137.4569  164.8726 C.3     1  UNL1        0.0173
     41 C         138.8739  138.4884  165.9431 C.3     1  UNL1        0.0015
     42 C         138.4457  139.9184  165.7955 C.3     1  UNL1        0.0015
     43 C         138.1120  140.6700  164.5410 C.3     1  UNL1        0.0173
     44 C         138.1240  140.1772  163.1243 C.3     1  UNL1        0.0721
@<TRIPOS>UNITY_ATOM_ATTR
24 1
charge -1
@<TRIPOS>BOND
     1    19    20    1
     2    20    18    1
     3    18    17    1
     4    17     7    1
     5     7     8   ar
     6     8     9   ar
     7     9     1    1
     8     1     2    1
     9     2     3    1
    10     3     4    1
    11     4    26    1
    12    26    27    1
    13    27    28    1
    14    28    29   ar
    15    29    30   ar
    16    30    31   ar
    17    31    34    1
    18    34    35    1
    19    35    36    1
    20    36    37    1
    21    37    38    1
    22    38    39    1
    23    39    40    1
    24    40    41    1
    25    41    42    1
    26    42    43    1
    27    43    44    1
    28    31    32   ar
    29    32    33   ar
    30     4     5    1
    31     5     6    1
    32     9    10   ar
    33    10    11   ar
    34    11    12   ar
    35    12    21    1
    36    21    22    1
    37    22    23    1
    38    23    24   ar
    39    23    25   ar
    40    12    13   ar
    41    13    14   ar
    42    14    15   ar
    43    15    16   ar
    44    16     7   ar
    45     6     1    1
    46    15    10   ar
    47    33    28   ar
    48    44    38    1
@<TRIPOS>MOLECULE
*****
 44 48 0 0 0
SMALL
GASTEIGER

@<TRIPOS>ATOM
      1 N         141.0484  142.6908  164.3426 N.pl3   1  UNL1       -0.3035
      2 C         139.6326  143.1858  164.3218 C.3     1  UNL1        0.1082
      3 C         139.2724  144.3940  163.5092 C.3     1  UNL1        0.0938
      4 N         140.3280  145.1073  162.7173 N.3     1  UNL1       -0.2695
      5 C         141.7438  144.6123  162.7381 C.3     1  UNL1        0.0938
      6 C         142.1041  143.4040  163.5507 C.3     1  UNL1        0.1082
      7 C         142.3412  140.4397  167.3445 C.ar    1  UNL1       -0.0209
      8 C         141.9809  141.6479  166.5318 C.ar    1  UNL1        0.0118
      9 C         141.4087  141.4825  165.1552 C.ar    1  UNL1        0.0655
     10 C         141.1966  140.1088  164.5912 C.ar    1  UNL1        0.0941
     11 N         140.6244  139.9434  163.2145 N.ar    1  UNL1       -0.2484
     12 C         140.4123  138.5698  162.6506 C.ar    1  UNL1        0.0594
     13 C         140.7726  137.3616  163.4632 C.ar    1  UNL1        0.0147
     14 C         141.3448  137.5269  164.8398 C.ar    1  UNL1        0.0027
     15 C         141.5568  138.9006  165.4038 C.ar    1  UNL1        0.0186
     16 C         142.1291  139.0660  166.7805 C.ar    1  UNL1       -0.0027
     17 C         142.9134  140.6051  168.7211 C.3     1  UNL1        0.0264
     18 C         142.3582  139.8091  169.8648 C.3     1  UNL1        0.0047
     19 C         140.0877  141.0457  170.1211 C.3     1  UNL1        0.0000
     20 C         140.8777  139.7707  170.1030 C.3     1  UNL1        0.0003
     21 C         139.8400  138.4044  161.2739 C.3     1  UNL1        0.0517
     22 C         138.3639  138.5528  161.0525 C.3     1  UNL1        0.0480
     23 C         137.8081  139.8512  160.5473 C.2     1  UNL1        0.0507
     24 O         137.6369  140.0710  159.0734 O.co2   1  UNL1       -0.5492
     25 O         137.4236  140.9300  161.5161 O.co2   1  UNL1       -0.5492
     26 C         139.9677  146.3155  161.9047 C.3     1  UNL1        0.0769
     27 C         139.5974  146.1639  160.4591 C.3     1  UNL1        0.0437
     28 C         140.2215  145.0770  159.6350 C.ar    1  UNL1       -0.0206
     29 C         139.6322  143.6976  159.6430 C.ar    1  UNL1       -0.0011
     30 C         140.2563  142.6106  158.8189 C.ar    1  UNL1        0.0366
     31 C         141.4696  142.9031  157.9868 C.ar    1  UNL1        0.1385
     32 C         142.0588  144.2825  157.9788 C.ar    1  UNL1        0.0366
     33 C         141.4348  145.3694  158.8029 C.ar    1  UNL1       -0.0011
     34 O         142.0937  141.8162  157.1627 O.3     1  UNL1       -0.4754
     35 C         142.6659  140.6020  157.8324 C.3     1  UNL1        0.2068
     36 C         143.9800  140.6908  158.5503 C.3     1  UNL1        0.0646
     37 C         144.1473  141.6483  159.6927 C.3     1  UNL1        0.0759
     38 N         144.4163  141.1284  161.0738 N.3     1  UNL1       -0.2726
     39 C         143.9636  139.7233  161.3399 C.3     1  UNL1        0.0721
     40 C         144.0853  138.9252  162.6041 C.3     1  UNL1        0.0173
     41 C         144.6895  139.3350  163.9144 C.3     1  UNL1        0.0015
     42 C         145.3214  140.6442  164.2842 C.3     1  UNL1        0.0015
     43 C         145.5051  141.8669  163.4349 C.3     1  UNL1        0.0173
     44 C         145.1023  142.0824  162.0061 C.3     1  UNL1        0.0721
@<TRIPOS>UNITY_ATOM_ATTR
24 1
charge -1
@<TRIPOS>BOND
     1    19    20    1
     2    20    18    1
     3    18    17    1
     4    17     7    1
     5     7     8   ar
     6     8     9   ar
     7     9     1    1
     8     1     2    1
     9     2     3    1
    10     3     4    1
    11     4    26    1
    12    26    27    1
    13    27    28    1
    14    28    29   ar
    15    29    30   ar
    16    30    31   ar
    17    31    34    1
    18    34    35    1
    19    35    36    1
    20    36    37    1
    21    37    38    1
    22    38    39    1
    23    39    40    1
    24    40    41    1
    25    41    42    1
    26    42    43    1
    27    43    44    1
    28    31    32   ar
    29    32    33   ar
    30     4     5    1
    31     5     6    1
    32     9    10   ar
    33    10    11   ar
    34    11    12   ar
    35    12    21    1
    36    21    22    1
    37    22    23    1
    38    23    24   ar
    39    23    25   ar
    40    12    13   ar
    41    13    14   ar
    42    14    15   ar
    43    15    16   ar
    44    16     7   ar
    45     6     1    1
    46    15    10   ar
    47    33    28   ar
    48    44    38    1
@<TRIPOS>MOLECULE
*****
 44 48 0 0 0
SMALL
GASTEIGER

@<TRIPOS>ATOM
      1 N         143.0139  139.3641  160.3350 N.pl3   1  UNL1       -0.3035
      2 C         143.7920  140.6429  160.2398 C.3     1  UNL1        0.1082
      3 C         144.5385  141.1574  161.4349 C.3     1  UNL1        0.0938
      4 N         144.5068  140.3930  162.7251 N.3     1  UNL1       -0.2695
      5 C         143.7287  139.1141  162.8203 C.3     1  UNL1        0.0938
      6 C         142.9822  138.5997  161.6253 C.3     1  UNL1        0.1082
      7 C         142.0071  137.1115  157.2266 C.ar    1  UNL1       -0.0209
      8 C         142.7536  137.6260  158.4216 C.ar    1  UNL1        0.0118
      9 C         142.2674  138.8497  159.1400 C.ar    1  UNL1        0.0655
     10 C         141.0346  139.5591  158.6632 C.ar    1  UNL1        0.0941
     11 N         140.5484  140.7828  159.3816 N.ar    1  UNL1       -0.2484
     12 C         139.3157  141.4921  158.9048 C.ar    1  UNL1        0.0594
     13 C         138.5692  140.9777  157.7098 C.ar    1  UNL1        0.0147
     14 C         139.0554  139.7539  156.9915 C.ar    1  UNL1        0.0027
     15 C         140.2881  139.0446  157.4682 C.ar    1  UNL1        0.0186
     16 C         140.7744  137.8208  156.7499 C.ar    1  UNL1       -0.0027
     17 C         142.4934  135.8877  156.5083 C.3     1  UNL1        0.0264
     18 C         143.2868  134.8505  157.2463 C.3     1  UNL1        0.0047
     19 C         144.5774  132.5959  157.2165 C.3     1  UNL1        0.0000
     20 C         143.5765  133.5280  156.6006 C.3     1  UNL1        0.0003
     21 C         138.8295  142.7159  159.6232 C.3     1  UNL1        0.0517
     22 C         139.6646  143.3310  160.7068 C.3     1  UNL1        0.0480
     23 C         140.4059  144.6091  160.4482 C.2     1  UNL1        0.0507
     24 O         141.8845  144.5810  160.1972 O.co2   1  UNL1       -0.5492
     25 O         139.6686  145.9154  160.4407 O.co2   1  UNL1       -0.5492
     26 C         145.2533  140.9074  163.9201 C.3     1  UNL1        0.0769
     27 C         145.1352  142.3498  164.3144 C.3     1  UNL1        0.0437
     28 C         143.7856  143.0011  164.3808 C.ar    1  UNL1       -0.0206
     29 C         142.6787  142.3551  165.1602 C.ar    1  UNL1       -0.0011
     30 C         141.3291  143.0064  165.2266 C.ar    1  UNL1        0.0366
     31 C         141.0864  144.3037  164.5136 C.ar    1  UNL1        0.1385
     32 C         142.1934  144.9496  163.7343 C.ar    1  UNL1        0.0366
     33 C         143.5430  144.2983  163.6679 C.ar    1  UNL1       -0.0011
     34 O         139.7369  144.9550  164.5801 O.3     1  UNL1       -0.4754
     35 C         138.5927  144.3920  163.7901 C.3     1  UNL1        0.2068
     36 C         137.8240  143.2166  164.3171 C.3     1  UNL1        0.0646
     37 C         137.3406  142.1536  163.3757 C.3     1  UNL1        0.0759
     38 N         137.8752  140.7563  163.4841 N.3     1  UNL1       -0.2726
     39 C         138.0601  140.0277  162.1860 C.3     1  UNL1        0.0721
     40 C         138.5697  138.6352  161.9595 C.3     1  UNL1        0.0173
     41 C         139.0201  137.6273  162.9750 C.3     1  UNL1        0.0015
     42 C         139.0723  137.7631  164.4680 C.3     1  UNL1        0.0015
     43 C         138.6868  138.9402  165.3140 C.3     1  UNL1        0.0173
     44 C         138.1541  140.2723  164.8761 C.3     1  UNL1        0.0721
@<TRIPOS>UNITY_ATOM_ATTR
24 1
charge -1
@<TRIPOS>BOND
     1    19    20    1
     2    20    18    1
     3    18    17    1
     4    17     7    1
     5     7     8   ar
     6     8     9   ar
     7     9     1    1
     8     1     2    1
     9     2     3    1
    10     3     4    1
    11     4    26    1
    12    26    27    1
    13    27    28    1
    14    28    29   ar
    15    29    30   ar
    16    30    31   ar
    17    31    34    1
    18    34    35    1
    19    35    36    1
    20    36    37    1
    21    37    38    1
    22    38    39    1
    23    39    40    1
    24    40    41    1
    25    41    42    1
    26    42    43    1
    27    43    44    1
    28    31    32   ar
    29    32    33   ar
    30     4     5    1
    31     5     6    1
    32     9    10   ar
    33    10    11   ar
    34    11    12   ar
    35    12    21    1
    36    21    22    1
    37    22    23    1
    38    23    24   ar
    39    23    25   ar
    40    12    13   ar
    41    13    14   ar
    42    14    15   ar
    43    15    16   ar
    44    16     7   ar
    45     6     1    1
    46    15    10   ar
    47    33    28   ar
    48    44    38    1
@<TRIPOS>MOLECULE
*****
 44 48 0 0 0
SMALL
GASTEIGER

@<TRIPOS>ATOM
      1 N         138.4578  140.3783  159.7435 N.pl3   1  UNL1       -0.3035
      2 C         139.2244  139.1015  159.5646 C.3     1  UNL1        0.1082
      3 C         139.3887  138.1573  160.7185 C.3     1  UNL1        0.0938
      4 N         138.7865  138.4900  162.0514 N.3     1  UNL1       -0.2695
      5 C         138.0198  139.7668  162.2304 C.3     1  UNL1        0.0938
      6 C         137.8555  140.7110  161.0765 C.3     1  UNL1        0.1082
      7 C         137.1240  141.9713  156.3622 C.ar    1  UNL1       -0.0209
      8 C         137.2883  141.0271  157.5162 C.ar    1  UNL1        0.0118
      9 C         138.2935  141.3225  158.5896 C.ar    1  UNL1        0.0655
     10 C         139.1344  142.5620  158.5091 C.ar    1  UNL1        0.0941
     11 N         140.1396  142.8574  159.5826 N.ar    1  UNL1       -0.2484
     12 C         140.9805  144.0969  159.5021 C.ar    1  UNL1        0.0594
     13 C         140.8162  145.0410  158.3481 C.ar    1  UNL1        0.0147
     14 C         139.8110  144.7457  157.2747 C.ar    1  UNL1        0.0027
     15 C         138.9701  143.5062  157.3552 C.ar    1  UNL1        0.0186
     16 C         137.9648  143.2108  156.2817 C.ar    1  UNL1       -0.0027
     17 C         136.1187  141.6759  155.2888 C.3     1  UNL1        0.0264
     18 C         135.4536  140.3325  155.2333 C.3     1  UNL1        0.0047
     19 C         133.5483  139.7144  156.8878 C.3     1  UNL1        0.0000
     20 C         133.9911  140.2064  155.5418 C.3     1  UNL1        0.0003
     21 C         141.9858  144.3922  160.5755 C.3     1  UNL1        0.0517
     22 C         141.5326  144.9339  161.8989 C.3     1  UNL1        0.0480
     23 C         140.1140  145.3874  162.0776 C.2     1  UNL1        0.0507
     24 O         139.1069  144.4702  162.7057 O.co2   1  UNL1       -0.5492
     25 O         139.7026  146.7581  161.6283 O.co2   1  UNL1       -0.5492
     26 C         138.9508  137.5458  163.2053 C.3     1  UNL1        0.0769
     27 C         140.3097  137.3129  163.7961 C.3     1  UNL1        0.0437
     28 C         140.7726  138.1374  164.9606 C.ar    1  UNL1       -0.0206
     29 C         142.2166  138.1178  165.3665 C.ar    1  UNL1       -0.0011
     30 C         142.6796  138.9422  166.5309 C.ar    1  UNL1        0.0366
     31 C         141.6986  139.7863  167.2894 C.ar    1  UNL1        0.1385
     32 C         140.2547  139.8059  166.8835 C.ar    1  UNL1        0.0366
     33 C         139.7918  138.9814  165.7191 C.ar    1  UNL1       -0.0011
     34 O         142.1616  140.6108  168.4538 O.3     1  UNL1       -0.4754
     35 C         142.9702  141.8523  168.2194 C.3     1  UNL1        0.2068
     36 C         142.7251  142.6875  166.9978 C.3     1  UNL1        0.0646
     37 C         143.6913  142.6412  165.8514 C.3     1  UNL1        0.0759
     38 N         143.3760  141.8183  164.6375 N.3     1  UNL1       -0.2726
     39 C         141.9718  141.9302  164.1221 C.3     1  UNL1        0.0721
     40 C         141.3515  141.2437  162.9415 C.3     1  UNL1        0.0173
     41 C         141.9821  140.2758  161.9847 C.3     1  UNL1        0.0015
     42 C         143.3888  139.7553  161.9722 C.3     1  UNL1        0.0015
     43 C         144.5123  140.0742  162.9135 C.3     1  UNL1        0.0173
     44 C         144.5066  140.9923  164.0997 C.3     1  UNL1        0.0721
@<TRIPOS>UNITY_ATOM_ATTR
24 1
charge -1
@<TRIPOS>BOND
     1    19    20    1
     2    20    18    1
     3    18    17    1
     4    17     7    1
     5     7     8   ar
     6     8     9   ar
     7     9     1    1
     8     1     2    1
     9     2     3    1
    10     3     4    1
    11     4    26    1
    12    26    27    1
    13    27    28    1
    14    28    29   ar
    15    29    30   ar
    16    30    31   ar
    17    31    34    1
    18    34    35    1
    19    35    36    1
    20    36    37    1
    21    37    38    1
    22    38    39    1
    23    39    40    1
    24    40    41    1
    25    41    42    1
    26    42    43    1
    27    43    44    1
    28    31    32   ar
    29    32    33   ar
    30     4     5    1
    31     5     6    1
    32     9    10   ar
    33    10    11   ar
    34    11    12   ar
    35    12    21    1
    36    21    22    1
    37    22    23    1
    38    23    24   ar
    39    23    25   ar
    40    12    13   ar
    41    13    14   ar
    42    14    15   ar
    43    15    16   ar
    44    16     7   ar
    45     6     1    1
    46    15    10   ar
    47    33    28   ar
    48    44    38    1
@<TRIPOS>MOLECULE
*****
 44 48 0 0 0
SMALL
GASTEIGER

@<TRIPOS>ATOM
      1 N         139.9682  138.5185  160.3883 N.pl3   1  UNL1       -0.3035
      2 C         138.5706  138.6054  160.9257 C.3     1  UNL1        0.1082
      3 C         138.2944  138.2539  162.3576 C.3     1  UNL1        0.0938
      4 N         139.4158  137.8156  163.2520 N.3     1  UNL1       -0.2695
      5 C         140.8136  137.7286  162.7146 C.3     1  UNL1        0.0938
      6 C         141.0898  138.0801  161.2827 C.3     1  UNL1        0.1082
      7 C         140.2500  138.2202  156.4410 C.ar    1  UNL1       -0.0209
      8 C         139.9738  137.8687  157.8728 C.ar    1  UNL1        0.0118
      9 C         140.2444  138.8699  158.9564 C.ar    1  UNL1        0.0655
     10 C         140.7913  140.2226  158.6083 C.ar    1  UNL1        0.0941
     11 N         141.0619  141.2238  159.6919 N.ar    1  UNL1       -0.2484
     12 C         141.6087  142.5765  159.3437 C.ar    1  UNL1        0.0594
     13 C         141.8849  142.9279  157.9118 C.ar    1  UNL1        0.0147
     14 C         141.6143  141.9267  156.8282 C.ar    1  UNL1        0.0027
     15 C         141.0675  140.5741  157.1764 C.ar    1  UNL1        0.0186
     16 C         140.7969  139.5728  156.0927 C.ar    1  UNL1       -0.0027
     17 C         139.9794  137.2189  155.3573 C.3     1  UNL1        0.0264
     18 C         140.7663  135.9431  155.3014 C.3     1  UNL1        0.0047
     19 C         142.0137  136.8046  153.1915 C.3     1  UNL1        0.0000
     20 C         141.7916  135.7408  154.2255 C.3     1  UNL1        0.0003
     21 C         141.8794  143.5778  160.4274 C.3     1  UNL1        0.0517
     22 C         141.3001  144.9583  160.3346 C.3     1  UNL1        0.0480
     23 C         140.0548  145.3018  161.0970 C.2     1  UNL1        0.0507
     24 O         138.8948  144.3508  161.1065 O.co2   1  UNL1       -0.5492
     25 O         139.9695  146.5964  161.8498 O.co2   1  UNL1       -0.5492
     26 C         139.1396  137.4641  164.6838 C.3     1  UNL1        0.0769
     27 C         138.9005  138.5505  165.6901 C.3     1  UNL1        0.0437
     28 C         140.0046  139.5030  166.0421 C.ar    1  UNL1       -0.0206
     29 C         141.4311  139.1348  165.7600 C.ar    1  UNL1       -0.0011
     30 C         142.5351  140.0873  166.1121 C.ar    1  UNL1        0.0366
     31 C         142.2126  141.4078  166.7463 C.ar    1  UNL1        0.1385
     32 C         140.7862  141.7759  167.0284 C.ar    1  UNL1        0.0366
     33 C         139.6821  140.8235  166.6763 C.ar    1  UNL1       -0.0011
     34 O         143.3167  142.3603  167.0983 O.3     1  UNL1       -0.4754
     35 C         144.0070  143.1403  166.0189 C.3     1  UNL1        0.2068
     36 C         143.4784  143.1083  164.6155 C.3     1  UNL1        0.0646
     37 C         142.3897  144.0538  164.2024 C.3     1  UNL1        0.0759
     38 N         140.9761  143.5655  164.0869 N.3     1  UNL1       -0.2726
     39 C         139.9317  144.4414  164.7131 C.3     1  UNL1        0.0721
     40 C         138.4472  144.2340  164.7675 C.3     1  UNL1        0.0173
     41 C         137.6402  143.0994  164.2092 C.3     1  UNL1        0.0015
     42 C         138.1186  141.8921  163.4586 C.3     1  UNL1        0.0015
     43 C         139.5221  141.5211  163.0809 C.3     1  UNL1        0.0173
     44 C         140.7938  142.2659  163.3605 C.3     1  UNL1        0.0721
@<TRIPOS>UNITY_ATOM_ATTR
24 1
charge -1
@<TRIPOS>BOND
     1    19    20    1
     2    20    18    1
     3    18    17    1
     4    17     7    1
     5     7     8   ar
     6     8     9   ar
     7     9     1    1
     8     1     2    1
     9     2     3    1
    10     3     4    1
    11     4    26    1
    12    26    27    1
    13    27    28    1
    14    28    29   ar
    15    29    30   ar
    16    30    31   ar
    17    31    34    1
    18    34    35    1
    19    35    36    1
    20    36    37    1
    21    37    38    1
    22    38    39    1
    23    39    40    1
    24    40    41    1
    25    41    42    1
    26    42    43    1
    27    43    44    1
    28    31    32   ar
    29    32    33   ar
    30     4     5    1
    31     5     6    1
    32     9    10   ar
    33    10    11   ar
    34    11    12   ar
    35    12    21    1
    36    21    22    1
    37    22    23    1
    38    23    24   ar
    39    23    25   ar
    40    12    13   ar
    41    13    14   ar
    42    14    15   ar
    43    15    16   ar
    44    16     7   ar
    45     6     1    1
    46    15    10   ar
    47    33    28   ar
    48    44    38    1
@<TRIPOS>MOLECULE
*****
 44 48 0 0 0
SMALL
GASTEIGER

@<TRIPOS>ATOM
      1 N         141.3424  138.3914  160.8684 N.pl3   1  UNL1       -0.3035
      2 C         139.8496  138.3558  161.0107 C.3     1  UNL1        0.1082
      3 C         139.2301  137.9505  162.3153 C.3     1  UNL1        0.0938
      4 N         140.1033  137.5809  163.4775 N.3     1  UNL1       -0.2695
      5 C         141.5962  137.6165  163.3352 C.3     1  UNL1        0.0938
      6 C         142.2157  138.0217  162.0306 C.3     1  UNL1        0.1082
      7 C         142.6218  138.2329  157.1150 C.ar    1  UNL1       -0.0209
      8 C         142.0023  137.8276  158.4196 C.ar    1  UNL1        0.0118
      9 C         141.9619  138.7967  159.5638 C.ar    1  UNL1        0.0655
     10 C         142.5411  140.1711  159.4034 C.ar    1  UNL1        0.0941
     11 N         142.5007  141.1401  160.5477 N.ar    1  UNL1       -0.2484
     12 C         143.0799  142.5145  160.3873 C.ar    1  UNL1        0.0594
     13 C         143.6994  142.9197  159.0827 C.ar    1  UNL1        0.0147
     14 C         143.7398  141.9507  157.9385 C.ar    1  UNL1        0.0027
     15 C         143.1606  140.5764  158.0989 C.ar    1  UNL1        0.0186
     16 C         143.2010  139.6072  156.9546 C.ar    1  UNL1       -0.0027
     17 C         142.6622  137.2638  155.9707 C.3     1  UNL1        0.0264
     18 C         143.7054  136.1865  155.9368 C.3     1  UNL1        0.0047
     19 C         142.7446  133.7734  155.9962 C.3     1  UNL1        0.0000
     20 C         143.4763  134.8972  156.6682 C.3     1  UNL1        0.0003
     21 C         143.0395  143.4836  161.5315 C.3     1  UNL1        0.0517
     22 C         144.1628  143.5182  162.5250 C.3     1  UNL1        0.0480
     23 C         144.3912  142.3517  163.4398 C.2     1  UNL1        0.0507
     24 O         143.2230  141.5742  163.9699 O.co2   1  UNL1       -0.5492
     25 O         145.7878  141.9624  163.8245 O.co2   1  UNL1       -0.5492
     26 C         139.4838  137.1756  164.7821 C.3     1  UNL1        0.0769
     27 C         138.5452  138.1083  165.4885 C.3     1  UNL1        0.0437
     28 C         138.8393  139.5786  165.5304 C.ar    1  UNL1       -0.0206
     29 C         138.1281  140.5127  164.5967 C.ar    1  UNL1       -0.0011
     30 C         138.4222  141.9830  164.6387 C.ar    1  UNL1        0.0366
     31 C         139.4275  142.5192  165.6144 C.ar    1  UNL1        0.1385
     32 C         140.1386  141.5851  166.5480 C.ar    1  UNL1        0.0366
     33 C         139.8445  140.1149  166.5061 C.ar    1  UNL1       -0.0011
     34 O         139.7216  143.9895  165.6563 O.3     1  UNL1       -0.4754
     35 C         139.2753  144.8760  164.5316 C.3     1  UNL1        0.2068
     36 C         140.1601  145.0742  163.3366 C.3     1  UNL1        0.0646
     37 C         139.5649  145.4861  162.0228 C.3     1  UNL1        0.0759
     38 N         139.6496  144.5673  160.8401 N.3     1  UNL1       -0.2726
     39 C         140.2438  145.1601  159.5968 C.3     1  UNL1        0.0721
     40 C         140.4640  144.5092  158.2635 C.3     1  UNL1        0.0173
     41 C         140.1445  143.1049  157.8440 C.3     1  UNL1        0.0015
     42 C         139.5258  142.0046  158.6544 C.3     1  UNL1        0.0015
     43 C         139.0739  142.0370  160.0843 C.3     1  UNL1        0.0173
     44 C         139.1290  143.1775  161.0570 C.3     1  UNL1        0.0721
@<TRIPOS>UNITY_ATOM_ATTR
24 1
charge -1
@<TRIPOS>BOND
     1    19    20    1
     2    20    18    1
     3    18    17    1
     4    17     7    1
     5     7     8   ar
     6     8     9   ar
     7     9     1    1
     8     1     2    1
     9     2     3    1
    10     3     4    1
    11     4    26    1
    12    26    27    1
    13    27    28    1
    14    28    29   ar
    15    29    30   ar
    16    30    31   ar
    17    31    34    1
    18    34    35    1
    19    35    36    1
    20    36    37    1
    21    37    38    1
    22    38    39    1
    23    39    40    1
    24    40    41    1
    25    41    42    1
    26    42    43    1
    27    43    44    1
    28    31    32   ar
    29    32    33   ar
    30     4     5    1
    31     5     6    1
    32     9    10   ar
    33    10    11   ar
    34    11    12   ar
    35    12    21    1
    36    21    22    1
    37    22    23    1
    38    23    24   ar
    39    23    25   ar
    40    12    13   ar
    41    13    14   ar
    42    14    15   ar
    43    15    16   ar
    44    16     7   ar
    45     6     1    1
    46    15    10   ar
    47    33    28   ar
    48    44    38    1
@<TRIPOS>MOLECULE
*****
 44 48 0 0 0
SMALL
GASTEIGER

@<TRIPOS>ATOM
      1 N         143.5269  142.2814  159.6638 N.pl3   1  UNL1       -0.3035
      2 C         142.3852  143.2493  159.7621 C.3     1  UNL1        0.1082
      3 C         142.3065  144.2013  160.9186 C.3     1  UNL1        0.0938
      4 N         143.3695  144.1855  161.9767 N.3     1  UNL1       -0.2695
      5 C         144.5112  143.2176  161.8785 C.3     1  UNL1        0.0938
      6 C         144.5899  142.2655  160.7220 C.3     1  UNL1        0.1082
      7 C         144.8133  140.4818  156.3689 C.ar    1  UNL1       -0.0209
      8 C         144.7346  141.4338  157.5254 C.ar    1  UNL1        0.0118
      9 C         143.6056  141.3293  158.5074 C.ar    1  UNL1        0.0655
     10 C         142.5552  140.2727  158.3329 C.ar    1  UNL1        0.0941
     11 N         141.4262  140.1682  159.3149 N.ar    1  UNL1       -0.2484
     12 C         140.3759  139.1117  159.1404 C.ar    1  UNL1        0.0594
     13 C         140.4546  138.1596  157.9840 C.ar    1  UNL1        0.0147
     14 C         141.5836  138.2641  157.0020 C.ar    1  UNL1        0.0027
     15 C         142.6339  139.3207  157.1765 C.ar    1  UNL1        0.0186
     16 C         143.7630  139.4252  156.1944 C.ar    1  UNL1       -0.0027
     17 C         145.9424  140.5863  155.3869 C.3     1  UNL1        0.0264
     18 C         146.4653  141.9339  154.9860 C.3     1  UNL1        0.0047
     19 C         148.9932  141.7190  155.5460 C.3     1  UNL1        0.0000
     20 C         147.7037  142.4805  155.6321 C.3     1  UNL1        0.0003
     21 C         139.2468  139.0071  160.1224 C.3     1  UNL1        0.0517
     22 C         138.3082  140.1618  160.3118 C.3     1  UNL1        0.0480
     23 C         138.4971  141.1003  161.4665 C.2     1  UNL1        0.0507
     24 O         139.8802  141.4511  161.9294 O.co2   1  UNL1       -0.5492
     25 O         137.3031  141.6881  162.1584 O.co2   1  UNL1       -0.5492
     26 C         143.2908  145.1375  163.1332 C.3     1  UNL1        0.0769
     27 C         142.0003  145.3068  163.8789 C.3     1  UNL1        0.0437
     28 C         141.2783  144.1044  164.4110 C.ar    1  UNL1       -0.0206
     29 C         142.0547  142.9067  164.8723 C.ar    1  UNL1       -0.0011
     30 C         141.3328  141.7044  165.4044 C.ar    1  UNL1        0.0366
     31 C         139.8344  141.6998  165.4753 C.ar    1  UNL1        0.1385
     32 C         139.0581  142.8975  165.0140 C.ar    1  UNL1        0.0366
     33 C         139.7801  144.0998  164.4818 C.ar    1  UNL1       -0.0011
     34 O         139.1124  140.4975  166.0074 O.3     1  UNL1       -0.4754
     35 C         138.4036  139.5703  165.0650 C.3     1  UNL1        0.2068
     36 C         138.8694  138.1523  164.9160 C.3     1  UNL1        0.0646
     37 C         139.8641  137.7976  163.8507 C.3     1  UNL1        0.0759
     38 N         141.2815  138.2766  163.9586 N.3     1  UNL1       -0.2726
     39 C         141.9102  138.1488  165.3146 C.3     1  UNL1        0.0721
     40 C         143.2954  138.5329  165.7430 C.3     1  UNL1        0.0173
     41 C         144.3941  139.1396  164.9215 C.3     1  UNL1        0.0015
     42 C         144.3789  139.5120  163.4686 C.3     1  UNL1        0.0015
     43 C         143.2612  139.3698  162.4783 C.3     1  UNL1        0.0173
     44 C         141.8827  138.8199  162.6965 C.3     1  UNL1        0.0721
@<TRIPOS>UNITY_ATOM_ATTR
24 1
charge -1
@<TRIPOS>BOND
     1    19    20    1
     2    20    18    1
     3    18    17    1
     4    17     7    1
     5     7     8   ar
     6     8     9   ar
     7     9     1    1
     8     1     2    1
     9     2     3    1
    10     3     4    1
    11     4    26    1
    12    26    27    1
    13    27    28    1
    14    28    29   ar
    15    29    30   ar
    16    30    31   ar
    17    31    34    1
    18    34    35    1
    19    35    36    1
    20    36    37    1
    21    37    38    1
    22    38    39    1
    23    39    40    1
    24    40    41    1
    25    41    42    1
    26    42    43    1
    27    43    44    1
    28    31    32   ar
    29    32    33   ar
    30     4     5    1
    31     5     6    1
    32     9    10   ar
    33    10    11   ar
    34    11    12   ar
    35    12    21    1
    36    21    22    1
    37    22    23    1
    38    23    24   ar
    39    23    25   ar
    40    12    13   ar
    41    13    14   ar
    42    14    15   ar
    43    15    16   ar
    44    16     7   ar
    45     6     1    1
    46    15    10   ar
    47    33    28   ar
    48    44    38    1
@<TRIPOS>MOLECULE
*****
 44 48 0 0 0
SMALL
GASTEIGER

@<TRIPOS>ATOM
      1 N         138.4092  140.2012  159.8879 N.pl3   1  UNL1       -0.3035
      2 C         139.2828  138.9891  159.7554 C.3     1  UNL1        0.1082
      3 C         139.5804  138.1439  160.9583 C.3     1  UNL1        0.0938
      4 N         139.0045  138.5108  162.2938 N.3     1  UNL1       -0.2695
      5 C         138.1309  139.7230  162.4265 C.3     1  UNL1        0.0938
      6 C         137.8333  140.5682  161.2235 C.3     1  UNL1        0.1082
      7 C         136.7626  141.4595  156.5034 C.ar    1  UNL1       -0.0209
      8 C         137.0602  140.6143  157.7063 C.ar    1  UNL1        0.0118
      9 C         138.1116  141.0464  158.6850 C.ar    1  UNL1        0.0655
     10 C         138.8654  142.3238  158.4608 C.ar    1  UNL1        0.0941
     11 N         139.9168  142.7559  159.4394 N.ar    1  UNL1       -0.2484
     12 C         140.6705  144.0332  159.2152 C.ar    1  UNL1        0.0594
     13 C         140.3729  144.8784  158.0122 C.ar    1  UNL1        0.0147
     14 C         139.3215  144.4463  157.0336 C.ar    1  UNL1        0.0027
     15 C         138.5678  143.1690  157.2578 C.ar    1  UNL1        0.0186
     16 C         137.5163  142.7368  156.2791 C.ar    1  UNL1       -0.0027
     17 C         135.7112  141.0273  155.5247 C.3     1  UNL1        0.0264
     18 C         136.1119  140.4589  154.1957 C.3     1  UNL1        0.0047
     19 C         136.5984  137.9068  154.1825 C.3     1  UNL1        0.0000
     20 C         137.0895  139.3231  154.1298 C.3     1  UNL1        0.0003
     21 C         141.7220  144.4654  160.1939 C.3     1  UNL1        0.0517
     22 C         141.3277  144.9053  161.5726 C.3     1  UNL1        0.0480
     23 C         139.9013  145.2650  161.8660 C.2     1  UNL1        0.0507
     24 O         139.0738  144.3854  162.7557 O.co2   1  UNL1       -0.5492
     25 O         139.3024  146.5041  161.2696 O.co2   1  UNL1       -0.5492
     26 C         139.3022  137.6656  163.4967 C.3     1  UNL1        0.0769
     27 C         140.6496  137.0241  163.6478 C.3     1  UNL1        0.0437
     28 C         141.8702  137.8768  163.8294 C.ar    1  UNL1       -0.0206
     29 C         142.6364  138.3544  162.6315 C.ar    1  UNL1       -0.0011
     30 C         143.8570  139.2071  162.8131 C.ar    1  UNL1        0.0366
     31 C         144.3114  139.5822  164.1926 C.ar    1  UNL1        0.1385
     32 C         143.5452  139.1046  165.3904 C.ar    1  UNL1        0.0366
     33 C         142.3246  138.2519  165.2088 C.ar    1  UNL1       -0.0011
     34 O         145.5320  140.4350  164.3741 O.3     1  UNL1       -0.4754
     35 C         145.7591  141.6192  163.4819 C.3     1  UNL1        0.2068
     36 C         144.7883  142.7627  163.4916 C.3     1  UNL1        0.0646
     37 C         144.1653  143.2066  164.7818 C.3     1  UNL1        0.0759
     38 N         142.9016  142.5597  165.2661 N.3     1  UNL1       -0.2726
     39 C         142.8177  142.3214  166.7447 C.3     1  UNL1        0.0721
     40 C         141.7003  141.7012  167.5301 C.3     1  UNL1        0.0173
     41 C         140.3909  141.1661  167.0310 C.3     1  UNL1        0.0015
     42 C         139.8755  141.1190  165.6231 C.3     1  UNL1        0.0015
     43 C         140.5422  141.5955  164.3667 C.3     1  UNL1        0.0173
     44 C         141.8889  142.2366  164.2078 C.3     1  UNL1        0.0721
@<TRIPOS>UNITY_ATOM_ATTR
24 1
charge -1
@<TRIPOS>BOND
     1    19    20    1
     2    20    18    1
     3    18    17    1
     4    17     7    1
     5     7     8   ar
     6     8     9   ar
     7     9     1    1
     8     1     2    1
     9     2     3    1
    10     3     4    1
    11     4    26    1
    12    26    27    1
    13    27    28    1
    14    28    29   ar
    15    29    30   ar
    16    30    31   ar
    17    31    34    1
    18    34    35    1
    19    35    36    1
    20    36    37    1
    21    37    38    1
    22    38    39    1
    23    39    40    1
    24    40    41    1
    25    41    42    1
    26    42    43    1
    27    43    44    1
    28    31    32   ar
    29    32    33   ar
    30     4     5    1
    31     5     6    1
    32     9    10   ar
    33    10    11   ar
    34    11    12   ar
    35    12    21    1
    36    21    22    1
    37    22    23    1
    38    23    24   ar
    39    23    25   ar
    40    12    13   ar
    41    13    14   ar
    42    14    15   ar
    43    15    16   ar
    44    16     7   ar
    45     6     1    1
    46    15    10   ar
    47    33    28   ar
    48    44    38    1
