@<TRIPOS>MOLECULE
*****
 26 28 0 0 0
SMALL
GASTEIGER

@<TRIPOS>ATOM
      1 C         138.3696  140.2763  162.2964 C.ar    1  UNL1       -0.0082
      2 C         139.1813  139.2580  163.0410 C.ar    1  UNL1        0.0255
      3 C         140.1048  138.5956  162.0621 C.ar    1  UNL1        0.0377
      4 N         139.8638  139.2045  160.7125 N.ar    1  UNL1       -0.3323
      5 C         140.5712  138.8388  159.4413 C.3     1  UNL1        0.1298
      6 C         138.7914  140.2432  160.8574 C.ar    1  UNL1        0.0329
      7 C         141.0458  137.5236  162.5260 C.3     1  UNL1        0.0442
      8 C         141.0633  137.1141  163.9688 C.3     1  UNL1        0.0126
      9 C         140.1398  137.7765  164.9478 C.3     1  UNL1        0.0496
     10 C         139.1988  138.8485  164.4838 C.2     1  UNL1        0.0985
     11 N         138.2752  139.5109  165.4628 N.2     1  UNL1       -0.0764
     12 C         137.6894  142.5411  163.3726 C.3     1  UNL1        0.0051
     13 C         137.3202  141.1706  162.8873 C.3     1  UNL1        0.0276
     14 C         138.2380  141.0986  159.7564 C.3     1  UNL1        0.0435
     15 C         138.7042  142.5158  159.6013 C.3     1  UNL1        0.0066
     16 O         138.2927  139.1013  166.9056 O.3     1  UNL1       -0.2986
     17 C         139.1511  139.8445  167.8859 C.2     1  UNL1        0.4303
     18 O         138.9489  139.6485  169.3592 O.2     1  UNL1       -0.2237
     19 N         140.2116  140.7838  167.3928 N.am    1  UNL1       -0.2482
     20 H         140.3444  140.9124  166.4258 H       1  UNL1        0.1583
     21 C         141.0700  141.5270  168.3731 C.ar    1  UNL1        0.0532
     22 C         140.5463  142.7632  169.0420 C.ar    1  UNL1        0.0148
     23 C         141.4046  143.5064  170.0222 C.ar    1  UNL1        0.0013
     24 C         142.7866  143.0134  170.3336 C.ar    1  UNL1        0.0001
     25 C         143.3104  141.7771  169.6646 C.ar    1  UNL1        0.0013
     26 C         142.4520  141.0339  168.6844 C.ar    1  UNL1        0.0148
@<TRIPOS>BOND
     1    12    13    1
     2    13     1    1
     3     1     2   ar
     4     2     3   ar
     5     3     4   ar
     6     4     5    1
     7     4     6   ar
     8     6    14    1
     9    14    15    1
    10     3     7    1
    11     7     8    1
    12     8     9    1
    13     9    10    1
    14    10    11    2
    15    11    16    1
    16    16    17    1
    17    17    18    2
    18    17    19   am
    19    19    21    1
    20    21    22   ar
    21    22    23   ar
    22    23    24   ar
    23    24    25   ar
    24    25    26   ar
    25     6     1   ar
    26    26    21   ar
    27    10     2    1
    28    19    20    1
@<TRIPOS>MOLECULE
*****
 26 28 0 0 0
SMALL
GASTEIGER

@<TRIPOS>ATOM
      1 C         142.2975  138.6723  161.8738 C.ar    1  UNL1       -0.0082
      2 C         143.3230  139.4680  162.6258 C.ar    1  UNL1        0.0255
      3 C         143.9206  140.4662  161.6790 C.ar    1  UNL1        0.0377
      4 N         143.2646  140.2873  160.3419 N.ar    1  UNL1       -0.3323
      5 C         143.5599  141.0783  159.1021 C.3     1  UNL1        0.1298
      6 C         142.2615  139.1786  160.4624 C.ar    1  UNL1        0.0329
      7 C         144.9850  141.4090  162.1566 C.3     1  UNL1        0.0442
      8 C         145.4517  141.3536  163.5811 C.3     1  UNL1        0.0126
      9 C         144.8540  140.3555  164.5279 C.3     1  UNL1        0.0496
     10 C         143.7896  139.4127  164.0502 C.2     1  UNL1        0.0985
     11 N         143.1919  138.4145  164.9970 N.2     1  UNL1       -0.0764
     12 C         140.0151  137.8134  162.7699 C.3     1  UNL1        0.0051
     13 C         141.4560  137.5646  162.4350 C.3     1  UNL1        0.0276
     14 C         141.3775  138.6663  159.3641 C.3     1  UNL1        0.0435
     15 C         140.1137  139.3956  159.0168 C.3     1  UNL1        0.0066
     16 O         143.6586  138.3591  166.4214 O.3     1  UNL1       -0.2986
     17 C         142.9154  139.1131  167.4840 C.2     1  UNL1        0.4303
     18 O         143.0987  138.7509  168.9280 O.2     1  UNL1       -0.2237
     19 N         141.9888  140.2294  167.1026 N.am    1  UNL1       -0.2482
     20 H         141.8685  140.4672  166.1548 H       1  UNL1        0.1583
     21 C         141.2456  140.9835  168.1651 C.ar    1  UNL1        0.0532
     22 C         141.6641  142.3776  168.5274 C.ar    1  UNL1        0.0148
     23 C         140.9209  143.1316  169.5899 C.ar    1  UNL1        0.0013
     24 C         139.7592  142.4915  170.2903 C.ar    1  UNL1        0.0001
     25 C         139.3406  141.0973  169.9281 C.ar    1  UNL1        0.0013
     26 C         140.0838  140.3433  168.8655 C.ar    1  UNL1        0.0148
@<TRIPOS>BOND
     1    12    13    1
     2    13     1    1
     3     1     2   ar
     4     2     3   ar
     5     3     4   ar
     6     4     5    1
     7     4     6   ar
     8     6    14    1
     9    14    15    1
    10     3     7    1
    11     7     8    1
    12     8     9    1
    13     9    10    1
    14    10    11    2
    15    11    16    1
    16    16    17    1
    17    17    18    2
    18    17    19   am
    19    19    21    1
    20    21    22   ar
    21    22    23   ar
    22    23    24   ar
    23    24    25   ar
    24    25    26   ar
    25     6     1   ar
    26    26    21   ar
    27    10     2    1
    28    19    20    1
@<TRIPOS>MOLECULE
*****
 26 28 0 0 0
SMALL
GASTEIGER

@<TRIPOS>ATOM
      1 C         143.8014  140.2406  162.0557 C.ar    1  UNL1       -0.0082
      2 C         142.8426  139.2577  162.6595 C.ar    1  UNL1        0.0255
      3 C         141.8509  138.8690  161.6033 C.ar    1  UNL1        0.0377
      4 N         142.1969  139.6117  160.3468 N.ar    1  UNL1       -0.3323
      5 C         141.4658  139.5223  159.0401 C.3     1  UNL1        0.1298
      6 C         143.4024  140.4594  160.6264 C.ar    1  UNL1        0.0329
      7 C         140.7610  137.8891  161.9221 C.3     1  UNL1        0.0442
      8 C         140.6628  137.2978  163.2972 C.3     1  UNL1        0.0126
      9 C         141.6544  137.6865  164.3533 C.3     1  UNL1        0.0496
     10 C         142.7443  138.6665  164.0345 C.2     1  UNL1        0.0985
     11 N         143.7360  139.0552  165.0907 N.2     1  UNL1       -0.0764
     12 C         144.7678  142.2071  163.4519 C.3     1  UNL1        0.0051
     13 C         144.9565  140.8906  162.7580 C.3     1  UNL1        0.0276
     14 C         144.0884  141.3666  159.6484 C.3     1  UNL1        0.0435
     15 C         143.7071  142.8154  159.5746 C.3     1  UNL1        0.0066
     16 O         143.6377  138.4640  166.4657 O.3     1  UNL1       -0.2986
     17 C         142.8841  139.1883  167.5415 C.2     1  UNL1        0.4303
     18 O         143.0260  138.7632  168.9729 O.2     1  UNL1       -0.2237
     19 N         141.9885  140.3379  167.1858 N.am    1  UNL1       -0.2482
     20 H         141.8953  140.6170  166.2462 H       1  UNL1        0.1583
     21 C         141.2348  141.0622  168.2615 C.ar    1  UNL1        0.0532
     22 C         141.6420  142.4504  168.6579 C.ar    1  UNL1        0.0148
     23 C         140.8883  143.1748  169.7336 C.ar    1  UNL1        0.0013
     24 C         139.7275  142.5109  170.4131 C.ar    1  UNL1        0.0001
     25 C         139.3203  141.1227  170.0168 C.ar    1  UNL1        0.0013
     26 C         140.0739  140.3983  168.9410 C.ar    1  UNL1        0.0148
@<TRIPOS>BOND
     1    12    13    1
     2    13     1    1
     3     1     2   ar
     4     2     3   ar
     5     3     4   ar
     6     4     5    1
     7     4     6   ar
     8     6    14    1
     9    14    15    1
    10     3     7    1
    11     7     8    1
    12     8     9    1
    13     9    10    1
    14    10    11    2
    15    11    16    1
    16    16    17    1
    17    17    18    2
    18    17    19   am
    19    19    21    1
    20    21    22   ar
    21    22    23   ar
    22    23    24   ar
    23    24    25   ar
    24    25    26   ar
    25     6     1   ar
    26    26    21   ar
    27    10     2    1
    28    19    20    1
@<TRIPOS>MOLECULE
*****
 26 28 0 0 0
SMALL
GASTEIGER

@<TRIPOS>ATOM
      1 C         139.9351  142.0232  165.5379 C.ar    1  UNL1       -0.0082
      2 C         141.2435  142.6739  165.1991 C.ar    1  UNL1        0.0255
      3 C         142.3314  141.9256  165.9108 C.ar    1  UNL1        0.0377
      4 N         141.6954  140.8125  166.6896 N.ar    1  UNL1       -0.3323
      5 C         142.4142  139.8144  167.5481 C.3     1  UNL1        0.1298
      6 C         140.2144  140.8728  166.4591 C.ar    1  UNL1        0.0329
      7 C         143.7606  142.3545  165.7579 C.3     1  UNL1        0.0442
      8 C         144.1018  143.5317  164.8932 C.3     1  UNL1        0.0126
      9 C         143.0140  144.2800  164.1814 C.3     1  UNL1        0.0496
     10 C         141.5848  143.8511  164.3344 C.2     1  UNL1        0.0985
     11 N         140.4969  144.5993  163.6226 N.2     1  UNL1       -0.0764
     12 C         138.0172  141.8384  163.7951 C.3     1  UNL1        0.0051
     13 C         138.5846  142.4483  165.0426 C.3     1  UNL1        0.0276
     14 C         139.1922  139.9455  167.0467 C.3     1  UNL1        0.0435
     15 C         138.4864  138.9545  166.1694 C.3     1  UNL1        0.0066
     16 O         140.8382  145.7765  162.7579 O.3     1  UNL1       -0.2986
     17 C         140.5372  145.7403  161.2888 C.2     1  UNL1        0.4303
     18 O         139.2825  146.3731  160.7645 O.2     1  UNL1       -0.2237
     19 N         141.4911  145.0712  160.3441 N.am    1  UNL1       -0.2482
     20 H         142.3147  144.6558  160.6883 H       1  UNL1        0.1583
     21 C         141.1902  145.0350  158.8750 C.ar    1  UNL1        0.0532
     22 C         141.9334  145.9368  157.9348 C.ar    1  UNL1        0.0148
     23 C         141.6325  145.9006  156.4657 C.ar    1  UNL1        0.0013
     24 C         140.5883  144.9626  155.9369 C.ar    1  UNL1        0.0001
     25 C         139.8450  144.0606  156.8772 C.ar    1  UNL1        0.0013
     26 C         140.1459  144.0968  158.3463 C.ar    1  UNL1        0.0148
@<TRIPOS>BOND
     1    12    13    1
     2    13     1    1
     3     1     2   ar
     4     2     3   ar
     5     3     4   ar
     6     4     5    1
     7     4     6   ar
     8     6    14    1
     9    14    15    1
    10     3     7    1
    11     7     8    1
    12     8     9    1
    13     9    10    1
    14    10    11    2
    15    11    16    1
    16    16    17    1
    17    17    18    2
    18    17    19   am
    19    19    21    1
    20    21    22   ar
    21    22    23   ar
    22    23    24   ar
    23    24    25   ar
    24    25    26   ar
    25     6     1   ar
    26    26    21   ar
    27    10     2    1
    28    19    20    1
@<TRIPOS>MOLECULE
*****
 26 28 0 0 0
SMALL
GASTEIGER

@<TRIPOS>ATOM
      1 C         139.5770  139.0678  161.7343 C.ar    1  UNL1       -0.0082
      2 C         138.8844  140.1990  162.4349 C.ar    1  UNL1        0.0255
      3 C         138.6922  141.3092  161.4447 C.ar    1  UNL1        0.0377
      4 N         139.2661  140.8642  160.1322 N.ar    1  UNL1       -0.3323
      5 C         139.2890  141.6640  158.8635 C.3     1  UNL1        0.1298
      6 C         139.8129  139.4790  160.3112 C.ar    1  UNL1        0.0329
      7 C         138.0194  142.5819  161.8661 C.3     1  UNL1        0.0442
      8 C         137.5389  142.7443  163.2777 C.3     1  UNL1        0.0126
      9 C         137.7311  141.6341  164.2679 C.3     1  UNL1        0.0496
     10 C         138.4038  140.3614  163.8465 C.2     1  UNL1        0.0985
     11 N         138.5960  139.2512  164.8367 N.2     1  UNL1       -0.0764
     12 C         141.3495  137.5641  162.8953 C.3     1  UNL1        0.0051
     13 C         139.9656  137.7559  162.3490 C.3     1  UNL1        0.0276
     14 C         140.4788  138.6503  159.2529 C.3     1  UNL1        0.0435
     15 C         141.9755  138.5710  159.1936 C.3     1  UNL1        0.0066
     16 O         138.1155  139.4137  166.2483 O.3     1  UNL1       -0.2986
     17 C         139.0315  139.9814  167.2917 C.2     1  UNL1        0.4303
     18 O         138.9292  139.5148  168.7136 O.2     1  UNL1       -0.2237
     19 N         140.0497  141.0158  166.9132 N.am    1  UNL1       -0.2482
     20 H         140.1169  141.3221  165.9800 H       1  UNL1        0.1583
     21 C         140.9657  141.5835  167.9566 C.ar    1  UNL1        0.0532
     22 C         142.3343  141.0010  168.1504 C.ar    1  UNL1        0.0148
     23 C         143.2502  141.5687  169.1938 C.ar    1  UNL1        0.0013
     24 C         142.7975  142.7190  170.0435 C.ar    1  UNL1        0.0001
     25 C         141.4289  143.3016  169.8498 C.ar    1  UNL1        0.0013
     26 C         140.5129  142.7338  168.8063 C.ar    1  UNL1        0.0148
@<TRIPOS>BOND
     1    12    13    1
     2    13     1    1
     3     1     2   ar
     4     2     3   ar
     5     3     4   ar
     6     4     5    1
     7     4     6   ar
     8     6    14    1
     9    14    15    1
    10     3     7    1
    11     7     8    1
    12     8     9    1
    13     9    10    1
    14    10    11    2
    15    11    16    1
    16    16    17    1
    17    17    18    2
    18    17    19   am
    19    19    21    1
    20    21    22   ar
    21    22    23   ar
    22    23    24   ar
    23    24    25   ar
    24    25    26   ar
    25     6     1   ar
    26    26    21   ar
    27    10     2    1
    28    19    20    1
@<TRIPOS>MOLECULE
*****
 26 28 0 0 0
SMALL
GASTEIGER

@<TRIPOS>ATOM
      1 C         141.8070  141.9927  165.4996 C.ar    1  UNL1       -0.0082
      2 C         140.5261  142.4835  164.8926 C.ar    1  UNL1        0.0255
      3 C         139.4529  141.4824  165.2024 C.ar    1  UNL1        0.0377
      4 N         140.0706  140.3729  166.0009 N.ar    1  UNL1       -0.3323
      5 C         139.3583  139.1608  166.5238 C.3     1  UNL1        0.1298
      6 C         141.5255  140.6883  166.1846 C.ar    1  UNL1        0.0329
      7 C         138.0519  141.7104  164.7174 C.3     1  UNL1        0.0442
      8 C         137.7242  142.9396  163.9227 C.3     1  UNL1        0.0126
      9 C         138.7974  143.9407  163.6129 C.3     1  UNL1        0.0496
     10 C         140.1984  143.7127  164.0979 C.2     1  UNL1        0.0985
     11 N         141.2716  144.7138  163.7881 N.2     1  UNL1       -0.0764
     12 C         144.1789  142.2149  164.4628 C.3     1  UNL1        0.0051
     13 C         143.1361  142.6849  165.4333 C.3     1  UNL1        0.0276
     14 C         142.5236  139.8470  166.9235 C.3     1  UNL1        0.0435
     15 C         143.2907  138.7820  166.1972 C.3     1  UNL1        0.0066
     16 O         140.9438  145.9430  162.9933 O.3     1  UNL1       -0.2986
     17 C         140.5448  145.8203  161.5526 C.2     1  UNL1        0.4303
     18 O         139.2336  146.3805  161.0871 O.2     1  UNL1       -0.2237
     19 N         141.4572  145.1373  160.5772 N.am    1  UNL1       -0.2482
     20 H         142.3178  144.7696  160.8827 H       1  UNL1        0.1583
     21 C         141.0582  145.0146  159.1365 C.ar    1  UNL1        0.0532
     22 C         140.0080  144.0234  158.7309 C.ar    1  UNL1        0.0148
     23 C         139.6090  143.9007  157.2901 C.ar    1  UNL1        0.0013
     24 C         140.2603  144.7692  156.2550 C.ar    1  UNL1        0.0001
     25 C         141.3106  145.7604  156.6606 C.ar    1  UNL1        0.0013
     26 C         141.7095  145.8831  158.1013 C.ar    1  UNL1        0.0148
@<TRIPOS>BOND
     1    12    13    1
     2    13     1    1
     3     1     2   ar
     4     2     3   ar
     5     3     4   ar
     6     4     5    1
     7     4     6   ar
     8     6    14    1
     9    14    15    1
    10     3     7    1
    11     7     8    1
    12     8     9    1
    13     9    10    1
    14    10    11    2
    15    11    16    1
    16    16    17    1
    17    17    18    2
    18    17    19   am
    19    19    21    1
    20    21    22   ar
    21    22    23   ar
    22    23    24   ar
    23    24    25   ar
    24    25    26   ar
    25     6     1   ar
    26    26    21   ar
    27    10     2    1
    28    19    20    1
@<TRIPOS>MOLECULE
*****
 26 28 0 0 0
SMALL
GASTEIGER

@<TRIPOS>ATOM
      1 C         140.4576  141.7052  161.6166 C.ar    1  UNL1       -0.0082
      2 C         139.5114  142.3059  162.6135 C.ar    1  UNL1        0.0255
      3 C         139.3567  143.7617  162.2870 C.ar    1  UNL1        0.0377
      4 N         140.2074  144.0607  161.0882 N.ar    1  UNL1       -0.3323
      5 C         140.3523  145.3963  160.4210 C.3     1  UNL1        0.1298
      6 C         140.8878  142.7898  160.6739 C.ar    1  UNL1        0.0329
      7 C         138.4613  144.6270  163.1233 C.3     1  UNL1        0.0442
      8 C         137.7205  144.0364  164.2862 C.3     1  UNL1        0.0126
      9 C         137.8752  142.5805  164.6128 C.3     1  UNL1        0.0496
     10 C         138.7706  141.7153  163.7764 C.2     1  UNL1        0.0985
     11 N         138.9252  140.2595  164.1030 N.2     1  UNL1       -0.0764
     12 C         142.1174  139.8364  162.3257 C.3     1  UNL1        0.0051
     13 C         140.8966  140.2716  161.5705 C.3     1  UNL1        0.0276
     14 C         141.8325  142.6312  159.5196 C.3     1  UNL1        0.0435
     15 C         143.3082  142.5262  159.7671 C.3     1  UNL1        0.0066
     16 O         138.1844  139.6689  165.2659 O.3     1  UNL1       -0.2986
     17 C         138.7862  139.7131  166.6391 C.2     1  UNL1        0.4303
     18 O         138.2001  138.8825  167.7420 O.2     1  UNL1       -0.2237
     19 N         139.9743  140.5881  166.9095 N.am    1  UNL1       -0.2482
     20 H         140.3590  141.1333  166.1856 H       1  UNL1        0.1583
     21 C         140.5761  140.6324  168.2827 C.ar    1  UNL1        0.0532
     22 C         141.7484  139.7581  168.6164 C.ar    1  UNL1        0.0148
     23 C         142.3502  139.8024  169.9897 C.ar    1  UNL1        0.0013
     24 C         141.7798  140.7210  171.0293 C.ar    1  UNL1        0.0001
     25 C         140.6074  141.5953  170.6956 C.ar    1  UNL1        0.0013
     26 C         140.0056  141.5510  169.3224 C.ar    1  UNL1        0.0148
@<TRIPOS>BOND
     1    12    13    1
     2    13     1    1
     3     1     2   ar
     4     2     3   ar
     5     3     4   ar
     6     4     5    1
     7     4     6   ar
     8     6    14    1
     9    14    15    1
    10     3     7    1
    11     7     8    1
    12     8     9    1
    13     9    10    1
    14    10    11    2
    15    11    16    1
    16    16    17    1
    17    17    18    2
    18    17    19   am
    19    19    21    1
    20    21    22   ar
    21    22    23   ar
    22    23    24   ar
    23    24    25   ar
    24    25    26   ar
    25     6     1   ar
    26    26    21   ar
    27    10     2    1
    28    19    20    1
@<TRIPOS>MOLECULE
*****
 26 28 0 0 0
SMALL
GASTEIGER

@<TRIPOS>ATOM
      1 C         143.5280  139.5998  161.1623 C.ar    1  UNL1       -0.0082
      2 C         143.6382  140.2378  159.8092 C.ar    1  UNL1        0.0255
      3 C         144.0102  141.6777  160.0046 C.ar    1  UNL1        0.0377
      4 N         144.1300  141.9296  161.4785 N.ar    1  UNL1       -0.3323
      5 C         144.4854  143.2364  162.1235 C.3     1  UNL1        0.1298
      6 C         143.8320  140.6454  162.1940 C.ar    1  UNL1        0.0329
      7 C         144.1918  142.5735  158.8153 C.3     1  UNL1        0.0442
      8 C         144.0014  142.0293  157.4305 C.3     1  UNL1        0.0126
      9 C         143.6293  140.5894  157.2351 C.3     1  UNL1        0.0496
     10 C         143.4477  139.6936  158.4245 C.2     1  UNL1        0.0985
     11 N         143.0757  138.2537  158.2291 N.2     1  UNL1       -0.0764
     12 C         141.8296  137.8208  161.9994 C.3     1  UNL1        0.0051
     13 C         143.1758  138.1676  161.4357 C.3     1  UNL1        0.0276
     14 C         143.8371  140.4424  163.6802 C.3     1  UNL1        0.0435
     15 C         145.1014  140.0357  164.3773 C.3     1  UNL1        0.0066
     16 O         142.8853  137.7095  156.8444 O.3     1  UNL1       -0.2986
     17 C         143.4690  136.3780  156.4749 C.2     1  UNL1        0.4303
     18 O         144.5132  136.2887  155.4018 O.2     1  UNL1       -0.2237
     19 N         143.0085  135.1359  157.1787 N.am    1  UNL1       -0.2482
     20 H         142.3232  135.1946  157.8830 H       1  UNL1        0.1583
     21 C         143.5922  133.8045  156.8092 C.ar    1  UNL1        0.0532
     22 C         144.5284  133.1084  157.7520 C.ar    1  UNL1        0.0148
     23 C         145.1122  131.7769  157.3826 C.ar    1  UNL1        0.0013
     24 C         144.7597  131.1416  156.0703 C.ar    1  UNL1        0.0001
     25 C         143.8235  131.8377  155.1274 C.ar    1  UNL1        0.0013
     26 C         143.2397  133.1691  155.4969 C.ar    1  UNL1        0.0148
@<TRIPOS>BOND
     1    12    13    1
     2    13     1    1
     3     1     2   ar
     4     2     3   ar
     5     3     4   ar
     6     4     5    1
     7     4     6   ar
     8     6    14    1
     9    14    15    1
    10     3     7    1
    11     7     8    1
    12     8     9    1
    13     9    10    1
    14    10    11    2
    15    11    16    1
    16    16    17    1
    17    17    18    2
    18    17    19   am
    19    19    21    1
    20    21    22   ar
    21    22    23   ar
    22    23    24   ar
    23    24    25   ar
    24    25    26   ar
    25     6     1   ar
    26    26    21   ar
    27    10     2    1
    28    19    20    1
@<TRIPOS>MOLECULE
*****
 26 28 0 0 0
SMALL
GASTEIGER

@<TRIPOS>ATOM
      1 C         141.6039  141.8823  166.5207 C.ar    1  UNL1       -0.0082
      2 C         140.3932  141.0943  166.1169 C.ar    1  UNL1        0.0255
      3 C         139.9652  140.2670  167.2927 C.ar    1  UNL1        0.0377
      4 N         140.9114  140.5439  168.4232 N.ar    1  UNL1       -0.3323
      5 C         140.8547  139.9302  169.7907 C.3     1  UNL1        0.1298
      6 C         141.9242  141.5422  167.9461 C.ar    1  UNL1        0.0329
      7 C         138.7692  139.3686  167.1820 C.3     1  UNL1        0.0442
      8 C         138.0012  139.2973  165.8956 C.3     1  UNL1        0.0126
      9 C         138.4292  140.1245  164.7198 C.3     1  UNL1        0.0496
     10 C         139.6252  141.0230  164.8304 C.2     1  UNL1        0.0985
     11 N         140.0532  141.8502  163.6546 N.2     1  UNL1       -0.0764
     12 C         143.7170  142.4703  165.1281 C.3     1  UNL1        0.0051
     13 C         142.3613  142.8421  165.6517 C.3     1  UNL1        0.0276
     14 C         143.0581  142.1021  168.7528 C.3     1  UNL1        0.0435
     15 C         142.7754  142.9014  169.9902 C.3     1  UNL1        0.0066
     16 O         139.2852  141.7790  162.3681 O.3     1  UNL1       -0.2986
     17 C         139.4665  142.8429  161.3265 C.2     1  UNL1        0.4303
     18 O         138.8431  144.1938  161.5177 O.2     1  UNL1       -0.2237
     19 N         140.2713  142.5561  160.0935 N.am    1  UNL1       -0.2482
     20 H         140.6805  141.6695  159.9680 H       1  UNL1        0.1583
     21 C         140.4526  143.6200  159.0519 C.ar    1  UNL1        0.0532
     22 C         141.5606  144.6219  159.1881 C.ar    1  UNL1        0.0148
     23 C         141.7419  145.6859  158.1464 C.ar    1  UNL1        0.0013
     24 C         140.8152  145.7480  156.9685 C.ar    1  UNL1        0.0001
     25 C         139.7072  144.7461  156.8323 C.ar    1  UNL1        0.0013
     26 C         139.5259  143.6821  157.8739 C.ar    1  UNL1        0.0148
@<TRIPOS>BOND
     1    12    13    1
     2    13     1    1
     3     1     2   ar
     4     2     3   ar
     5     3     4   ar
     6     4     5    1
     7     4     6   ar
     8     6    14    1
     9    14    15    1
    10     3     7    1
    11     7     8    1
    12     8     9    1
    13     9    10    1
    14    10    11    2
    15    11    16    1
    16    16    17    1
    17    17    18    2
    18    17    19   am
    19    19    21    1
    20    21    22   ar
    21    22    23   ar
    22    23    24   ar
    23    24    25   ar
    24    25    26   ar
    25     6     1   ar
    26    26    21   ar
    27    10     2    1
    28    19    20    1
