@<TRIPOS>MOLECULE
*****
 24 27 0 0 0
SMALL
GASTEIGER

@<TRIPOS>ATOM
      1 O         138.1417  139.1688  162.6627 O.2     1  UNL1       -0.2526
      2 C         139.5651  138.7076  162.7699 C.2     1  UNL1        0.3039
      3 N         140.1775  138.4716  164.1187 N.am    1  UNL1       -0.2901
      4 N         140.3761  138.4825  161.5283 N.am    1  UNL1       -0.2642
      5 C         139.7637  138.7185  160.1794 C.3     1  UNL1        0.0954
      6 C         140.5746  138.4934  158.9378 C.3     1  UNL1        0.0293
      7 C         141.9980  138.0323  159.0450 C.3     1  UNL1        0.0654
      8 C         142.6103  137.7963  160.3938 C.3     1  UNL1        0.0293
      9 C         141.7994  138.0214  161.6354 C.3     1  UNL1        0.0954
     10 H         141.1116  138.1690  164.1890 H       1  UNL1        0.1509
     11 C         142.8090  137.8072  157.8033 C.ar    1  UNL1        0.1806
     12 N         142.8547  136.5430  156.9973 N.ar    1  UNL1       -0.1871
     13 C         143.7906  136.7613  155.8455 C.ar    1  UNL1        0.3161
     14 O         144.3233  138.1603  155.9398 O.2     1  UNL1       -0.3277
     15 N         143.7166  138.8067  157.1498 N.ar    1  UNL1       -0.0600
     16 C         139.3665  138.6967  165.3603 C.3     1  UNL1        0.0774
     17 C         138.1911  138.3492  166.2249 C.3     1  UNL1        0.0259
     18 C         139.1373  139.4341  166.6463 C.3     1  UNL1        0.0420
     19 C         139.5514  140.4863  167.6320 C.ar    1  UNL1       -0.0208
     20 C         140.2191  141.7413  167.1533 C.ar    1  UNL1       -0.0042
     21 C         140.6331  142.7933  168.1390 C.ar    1  UNL1       -0.0003
     22 C         140.3794  142.5905  169.6034 C.ar    1  UNL1       -0.0000
     23 C         139.7116  141.3355  170.0821 C.ar    1  UNL1       -0.0003
     24 C         139.2976  140.2834  169.0964 C.ar    1  UNL1       -0.0042
@<TRIPOS>BOND
     1     1     2    2
     2     2     3   am
     3     3    16    1
     4    16    17    1
     5    17    18    1
     6    18    19    1
     7    19    20   ar
     8    20    21   ar
     9    21    22   ar
    10    22    23   ar
    11    23    24   ar
    12     2     4   am
    13     4     5    1
    14     5     6    1
    15     6     7    1
    16     7    11    1
    17    11    12   ar
    18    12    13   ar
    19    13    14   ar
    20    14    15   ar
    21     7     8    1
    22     8     9    1
    23    18    16    1
    24    24    19   ar
    25     9     4    1
    26    15    11   ar
    27     3    10    1
@<TRIPOS>MOLECULE
*****
 24 27 0 0 0
SMALL
GASTEIGER

@<TRIPOS>ATOM
      1 O         141.7179  138.2090  165.0952 O.2     1  UNL1       -0.2526
      2 C         140.7888  138.4217  163.9369 C.2     1  UNL1        0.3039
      3 N         139.3438  138.7400  164.1832 N.am    1  UNL1       -0.2901
      4 N         141.3047  138.3161  162.5324 N.am    1  UNL1       -0.2642
      5 C         142.7497  137.9977  162.2861 C.3     1  UNL1        0.0954
      6 C         143.2657  137.8921  160.8816 C.3     1  UNL1        0.0293
      7 C         142.3365  138.1048  159.7233 C.3     1  UNL1        0.0654
      8 C         140.8916  138.4231  159.9696 C.3     1  UNL1        0.0293
      9 C         140.3756  138.5288  161.3741 C.3     1  UNL1        0.0954
     10 H         138.7340  138.8796  163.4230 H       1  UNL1        0.1509
     11 C         142.8525  137.9992  158.3188 C.ar    1  UNL1        0.1806
     12 N         142.6505  136.8386  157.3903 N.ar    1  UNL1       -0.1871
     13 C         143.3342  137.1577  156.0938 C.ar    1  UNL1        0.3161
     14 O         143.9586  138.5156  156.2211 O.2     1  UNL1       -0.3277
     15 N         143.6609  139.0356  157.5962 N.ar    1  UNL1       -0.0600
     16 C         138.8279  138.8457  165.5877 C.3     1  UNL1        0.0774
     17 C         137.8813  138.3965  166.6611 C.3     1  UNL1        0.0259
     18 C         138.8808  139.4778  166.9469 C.3     1  UNL1        0.0420
     19 C         139.4885  140.4671  167.8967 C.ar    1  UNL1       -0.0208
     20 C         140.3289  141.5929  167.3709 C.ar    1  UNL1       -0.0042
     21 C         140.9365  142.5821  168.3207 C.ar    1  UNL1       -0.0003
     22 C         140.7037  142.4456  169.7963 C.ar    1  UNL1       -0.0000
     23 C         139.8634  141.3199  170.3220 C.ar    1  UNL1       -0.0003
     24 C         139.2557  140.3307  169.3722 C.ar    1  UNL1       -0.0042
@<TRIPOS>BOND
     1     1     2    2
     2     2     3   am
     3     3    16    1
     4    16    17    1
     5    17    18    1
     6    18    19    1
     7    19    20   ar
     8    20    21   ar
     9    21    22   ar
    10    22    23   ar
    11    23    24   ar
    12     2     4   am
    13     4     5    1
    14     5     6    1
    15     6     7    1
    16     7    11    1
    17    11    12   ar
    18    12    13   ar
    19    13    14   ar
    20    14    15   ar
    21     7     8    1
    22     8     9    1
    23    18    16    1
    24    24    19   ar
    25     9     4    1
    26    15    11   ar
    27     3    10    1
@<TRIPOS>MOLECULE
*****
 24 27 0 0 0
SMALL
GASTEIGER

@<TRIPOS>ATOM
      1 O         144.4687  139.3278  159.8687 O.2     1  UNL1       -0.2526
      2 C         143.3959  138.5599  160.5827 C.2     1  UNL1        0.3039
      3 N         142.4724  137.6660  159.8093 N.am    1  UNL1       -0.2901
      4 N         143.2468  138.6860  162.0699 N.am    1  UNL1       -0.2642
      5 C         144.1704  139.5799  162.8432 C.3     1  UNL1        0.0954
      6 C         144.0212  139.7059  164.3304 C.3     1  UNL1        0.0293
      7 C         142.9484  138.9380  165.0444 C.3     1  UNL1        0.0654
      8 C         142.0249  138.0441  164.2710 C.3     1  UNL1        0.0293
      9 C         142.1741  137.9181  162.7838 C.3     1  UNL1        0.0954
     10 H         141.7684  137.1621  160.2779 H       1  UNL1        0.1509
     11 C         142.7993  139.0640  166.5316 C.ar    1  UNL1        0.1806
     12 N         141.8495  139.9775  167.2482 N.ar    1  UNL1       -0.1871
     13 C         142.0369  139.7768  168.7228 C.ar    1  UNL1        0.3161
     14 O         143.1025  138.7392  168.9176 O.2     1  UNL1       -0.3277
     15 N         143.5736  138.2987  167.5634 N.ar    1  UNL1       -0.0600
     16 C         142.6216  137.5400  158.3221 C.3     1  UNL1        0.0774
     17 C         142.7915  138.1774  156.9750 C.3     1  UNL1        0.0259
     18 C         142.7101  136.6843  157.0933 C.3     1  UNL1        0.0420
     19 C         142.7143  135.3282  156.4522 C.ar    1  UNL1       -0.0208
     20 C         143.8296  134.3668  156.7382 C.ar    1  UNL1       -0.0042
     21 C         143.8338  133.0108  156.0971 C.ar    1  UNL1       -0.0003
     22 C         142.7226  132.6161  155.1701 C.ar    1  UNL1       -0.0000
     23 C         141.6072  133.5774  154.8841 C.ar    1  UNL1       -0.0003
     24 C         141.6031  134.9335  155.5252 C.ar    1  UNL1       -0.0042
@<TRIPOS>BOND
     1     1     2    2
     2     2     3   am
     3     3    16    1
     4    16    17    1
     5    17    18    1
     6    18    19    1
     7    19    20   ar
     8    20    21   ar
     9    21    22   ar
    10    22    23   ar
    11    23    24   ar
    12     2     4   am
    13     4     5    1
    14     5     6    1
    15     6     7    1
    16     7    11    1
    17    11    12   ar
    18    12    13   ar
    19    13    14   ar
    20    14    15   ar
    21     7     8    1
    22     8     9    1
    23    18    16    1
    24    24    19   ar
    25     9     4    1
    26    15    11   ar
    27     3    10    1
@<TRIPOS>MOLECULE
*****
 24 27 0 0 0
SMALL
GASTEIGER

@<TRIPOS>ATOM
      1 O         139.4428  143.0507  165.5512 O.2     1  UNL1       -0.2526
      2 C         139.5665  142.2643  164.2798 C.2     1  UNL1        0.3039
      3 N         139.3460  140.7807  164.2912 N.am    1  UNL1       -0.2901
      4 N         139.9105  142.9617  162.9971 N.am    1  UNL1       -0.2642
      5 C         140.1310  144.4454  162.9858 C.3     1  UNL1        0.0954
      6 C         140.4751  145.1427  161.7031 C.3     1  UNL1        0.0293
      7 C         140.5987  144.3564  160.4317 C.3     1  UNL1        0.0654
      8 C         140.3782  142.8727  160.4431 C.3     1  UNL1        0.0293
      9 C         140.0342  142.1754  161.7258 C.3     1  UNL1        0.0954
     10 H         139.4271  140.2646  163.4567 H       1  UNL1        0.1509
     11 C         140.9428  145.0537  159.1490 C.ar    1  UNL1        0.1806
     12 N         142.3039  145.1268  158.5228 N.ar    1  UNL1       -0.1871
     13 C         142.1885  145.9187  157.2541 C.ar    1  UNL1        0.3161
     14 O         140.7561  146.3350  157.0962 O.2     1  UNL1       -0.3277
     15 N         139.9863  145.8004  158.2673 N.ar    1  UNL1       -0.0600
     16 C         139.0019  140.0834  165.5739 C.3     1  UNL1        0.0774
     17 C         138.1193  139.1506  166.3491 C.3     1  UNL1        0.0259
     18 C         139.2885  139.8083  167.0203 C.3     1  UNL1        0.0420
     19 C         140.1290  140.0293  168.2429 C.ar    1  UNL1       -0.0208
     20 C         139.4769  140.3743  169.5490 C.ar    1  UNL1       -0.0042
     21 C         140.3174  140.5953  170.7715 C.ar    1  UNL1       -0.0003
     22 C         141.8100  140.4712  170.6881 C.ar    1  UNL1       -0.0000
     23 C         142.4620  140.1262  169.3820 C.ar    1  UNL1       -0.0003
     24 C         141.6215  139.9052  168.1595 C.ar    1  UNL1       -0.0042
@<TRIPOS>BOND
     1     1     2    2
     2     2     3   am
     3     3    16    1
     4    16    17    1
     5    17    18    1
     6    18    19    1
     7    19    20   ar
     8    20    21   ar
     9    21    22   ar
    10    22    23   ar
    11    23    24   ar
    12     2     4   am
    13     4     5    1
    14     5     6    1
    15     6     7    1
    16     7    11    1
    17    11    12   ar
    18    12    13   ar
    19    13    14   ar
    20    14    15   ar
    21     7     8    1
    22     8     9    1
    23    18    16    1
    24    24    19   ar
    25     9     4    1
    26    15    11   ar
    27     3    10    1
@<TRIPOS>MOLECULE
*****
 24 27 0 0 0
SMALL
GASTEIGER

@<TRIPOS>ATOM
      1 O         141.7847  142.5436  165.8532 O.2     1  UNL1       -0.2526
      2 C         142.1023  141.8996  164.5362 C.2     1  UNL1        0.3039
      3 N         142.6190  140.4920  164.4949 N.am    1  UNL1       -0.2901
      4 N         141.9031  142.6632  163.2606 N.am    1  UNL1       -0.2642
      5 C         141.3864  144.0708  163.3020 C.3     1  UNL1        0.0954
      6 C         141.1872  144.8345  162.0264 C.3     1  UNL1        0.0293
      7 C         141.5048  144.1904  160.7093 C.3     1  UNL1        0.0654
      8 C         142.0215  142.7829  160.6680 C.3     1  UNL1        0.0293
      9 C         142.2207  142.0193  161.9436 C.3     1  UNL1        0.0954
     10 H         142.8274  140.0694  163.6305 H       1  UNL1        0.1509
     11 C         141.3057  144.9541  159.4337 C.ar    1  UNL1        0.1806
     12 N         142.3461  145.1996  158.3815 N.ar    1  UNL1       -0.1871
     13 C         141.7146  146.0035  157.2838 C.ar    1  UNL1        0.3161
     14 O         140.2838  146.2548  157.6576 O.2     1  UNL1       -0.3277
     15 N         140.0311  145.6063  158.9863 N.ar    1  UNL1       -0.0600
     16 C         142.8181  139.7284  165.7705 C.3     1  UNL1        0.0774
     17 C         143.4157  138.5685  166.5104 C.3     1  UNL1        0.0259
     18 C         142.5654  139.5657  167.2401 C.3     1  UNL1        0.0420
     19 C         141.9286  140.0476  168.5099 C.ar    1  UNL1       -0.0208
     20 C         142.7797  140.6116  169.6087 C.ar    1  UNL1       -0.0042
     21 C         142.1428  141.0934  170.8784 C.ar    1  UNL1       -0.0003
     22 C         140.6548  141.0113  171.0493 C.ar    1  UNL1       -0.0000
     23 C         139.8037  140.4472  169.9504 C.ar    1  UNL1       -0.0003
     24 C         140.4406  139.9654  168.6807 C.ar    1  UNL1       -0.0042
@<TRIPOS>BOND
     1     1     2    2
     2     2     3   am
     3     3    16    1
     4    16    17    1
     5    17    18    1
     6    18    19    1
     7    19    20   ar
     8    20    21   ar
     9    21    22   ar
    10    22    23   ar
    11    23    24   ar
    12     2     4   am
    13     4     5    1
    14     5     6    1
    15     6     7    1
    16     7    11    1
    17    11    12   ar
    18    12    13   ar
    19    13    14   ar
    20    14    15   ar
    21     7     8    1
    22     8     9    1
    23    18    16    1
    24    24    19   ar
    25     9     4    1
    26    15    11   ar
    27     3    10    1
@<TRIPOS>MOLECULE
*****
 24 27 0 0 0
SMALL
GASTEIGER

@<TRIPOS>ATOM
      1 O         138.4603  138.0905  163.3220 O.2     1  UNL1       -0.2526
      2 C         138.3936  139.5885  163.2787 C.2     1  UNL1        0.3039
      3 N         138.3503  140.3745  164.5555 N.am    1  UNL1       -0.2901
      4 N         138.3704  140.3003  161.9586 N.am    1  UNL1       -0.2642
      5 C         138.4137  139.5143  160.6818 C.3     1  UNL1        0.0954
      6 C         138.3904  140.2261  159.3616 C.3     1  UNL1        0.0293
      7 C         138.3238  141.7241  159.3184 C.3     1  UNL1        0.0654
      8 C         138.2805  142.5101  160.5952 C.3     1  UNL1        0.0293
      9 C         138.3038  141.7982  161.9153 C.3     1  UNL1        0.0954
     10 H         138.3066  141.3576  164.5271 H       1  UNL1        0.1509
     11 C         138.3005  142.4359  157.9983 C.ar    1  UNL1        0.1806
     12 N         139.2359  143.5268  157.5682 N.ar    1  UNL1       -0.1871
     13 C         138.8513  143.9470  156.1806 C.ar    1  UNL1        0.3161
     14 O         137.6781  143.1158  155.7530 O.2     1  UNL1       -0.3277
     15 N         137.3378  142.1819  156.8764 N.ar    1  UNL1       -0.0600
     16 C         138.3736  139.6626  165.8757 C.3     1  UNL1        0.0774
     17 C         137.8534  138.5843  166.7794 C.3     1  UNL1        0.0259
     18 C         138.9341  139.5079  167.2583 C.3     1  UNL1        0.0420
     19 C         139.8816  139.9518  168.3332 C.ar    1  UNL1       -0.0208
     20 C         139.3484  140.4683  169.6366 C.ar    1  UNL1       -0.0042
     21 C         140.2959  140.9122  170.7114 C.ar    1  UNL1       -0.0003
     22 C         141.7766  140.8395  170.4828 C.ar    1  UNL1       -0.0000
     23 C         142.3098  140.3229  169.1794 C.ar    1  UNL1       -0.0003
     24 C         141.3623  139.8791  168.1046 C.ar    1  UNL1       -0.0042
@<TRIPOS>BOND
     1     1     2    2
     2     2     3   am
     3     3    16    1
     4    16    17    1
     5    17    18    1
     6    18    19    1
     7    19    20   ar
     8    20    21   ar
     9    21    22   ar
    10    22    23   ar
    11    23    24   ar
    12     2     4   am
    13     4     5    1
    14     5     6    1
    15     6     7    1
    16     7    11    1
    17    11    12   ar
    18    12    13   ar
    19    13    14   ar
    20    14    15   ar
    21     7     8    1
    22     8     9    1
    23    18    16    1
    24    24    19   ar
    25     9     4    1
    26    15    11   ar
    27     3    10    1
@<TRIPOS>MOLECULE
*****
 24 27 0 0 0
SMALL
GASTEIGER

@<TRIPOS>ATOM
      1 O         143.2004  137.5973  157.2802 O.2     1  UNL1       -0.2526
      2 C         141.7017  137.6538  157.3107 C.2     1  UNL1        0.3039
      3 N         140.8984  136.7206  156.4541 N.am    1  UNL1       -0.2901
      4 N         141.0064  138.6435  158.1979 N.am    1  UNL1       -0.2642
      5 C         141.8098  139.5767  159.0546 C.3     1  UNL1        0.0954
      6 C         141.1145  140.5664  159.9417 C.3     1  UNL1        0.0293
      7 C         139.6158  140.6228  159.9723 C.3     1  UNL1        0.0654
      8 C         138.8125  139.6896  159.1157 C.3     1  UNL1        0.0293
      9 C         139.5078  138.7000  158.2285 C.3     1  UNL1        0.0954
     10 H         139.9148  136.7577  156.4741 H       1  UNL1        0.1509
     11 C         138.9205  141.6125  160.8595 C.ar    1  UNL1        0.1806
     12 N         138.5317  141.3921  162.2913 N.ar    1  UNL1       -0.1871
     13 C         137.8629  142.6397  162.7874 C.ar    1  UNL1        0.3161
     14 O         137.8383  143.6312  161.6621 O.2     1  UNL1       -0.3277
     15 N         138.4919  142.9963  160.4706 N.ar    1  UNL1       -0.0600
     16 C         141.5937  135.7310  155.5669 C.3     1  UNL1        0.0774
     17 C         141.8792  135.1907  154.1970 C.3     1  UNL1        0.0259
     18 C         142.5125  134.5571  155.4001 C.3     1  UNL1        0.0420
     19 C         143.4086  133.5135  155.9985 C.ar    1  UNL1       -0.0208
     20 C         144.0222  133.7366  157.3489 C.ar    1  UNL1       -0.0042
     21 C         144.9182  132.6930  157.9472 C.ar    1  UNL1       -0.0003
     22 C         145.2006  131.4263  157.1952 C.ar    1  UNL1       -0.0000
     23 C         144.5870  131.2031  155.8448 C.ar    1  UNL1       -0.0003
     24 C         143.6909  132.2467  155.2465 C.ar    1  UNL1       -0.0042
@<TRIPOS>BOND
     1     1     2    2
     2     2     3   am
     3     3    16    1
     4    16    17    1
     5    17    18    1
     6    18    19    1
     7    19    20   ar
     8    20    21   ar
     9    21    22   ar
    10    22    23   ar
    11    23    24   ar
    12     2     4   am
    13     4     5    1
    14     5     6    1
    15     6     7    1
    16     7    11    1
    17    11    12   ar
    18    12    13   ar
    19    13    14   ar
    20    14    15   ar
    21     7     8    1
    22     8     9    1
    23    18    16    1
    24    24    19   ar
    25     9     4    1
    26    15    11   ar
    27     3    10    1
@<TRIPOS>MOLECULE
*****
 24 27 0 0 0
SMALL
GASTEIGER

@<TRIPOS>ATOM
      1 O         141.3001  143.8492  162.9353 O.2     1  UNL1       -0.2526
      2 C         141.6704  142.4222  162.6586 C.2     1  UNL1        0.3039
      3 N         141.2677  141.3430  163.6193 N.am    1  UNL1       -0.2901
      4 N         142.4435  142.0744  161.4210 N.am    1  UNL1       -0.2642
      5 C         142.8462  143.1537  160.4602 C.3     1  UNL1        0.0954
      6 C         143.6192  142.8060  159.2227 C.3     1  UNL1        0.0293
      7 C         143.9895  141.3790  158.9459 C.3     1  UNL1        0.0654
      8 C         143.5868  140.2998  159.9066 C.3     1  UNL1        0.0293
      9 C         142.8138  140.6475  161.1442 C.3     1  UNL1        0.0954
     10 H         141.5108  140.4064  163.4376 H       1  UNL1        0.1509
     11 C         144.7625  141.0313  157.7083 C.ar    1  UNL1        0.1806
     12 N         145.7915  141.8940  157.0400 N.ar    1  UNL1       -0.1871
     13 C         146.3072  141.1557  155.8404 C.ar    1  UNL1        0.3161
     14 O         145.5969  139.8366  155.7674 O.2     1  UNL1       -0.3277
     15 N         144.6422  139.7597  156.9218 N.ar    1  UNL1       -0.0600
     16 C         140.4947  141.6907  164.8569 C.3     1  UNL1        0.0774
     17 C         139.1831  141.9156  165.5488 C.3     1  UNL1        0.0259
     18 C         140.4676  142.0680  166.3083 C.3     1  UNL1        0.0420
     19 C         141.1935  142.3739  167.5849 C.ar    1  UNL1       -0.0208
     20 C         140.4871  143.0932  168.6955 C.ar    1  UNL1       -0.0042
     21 C         141.2131  143.3990  169.9720 C.ar    1  UNL1       -0.0003
     22 C         142.6454  142.9856  170.1378 C.ar    1  UNL1       -0.0000
     23 C         143.3518  142.2663  169.0272 C.ar    1  UNL1       -0.0003
     24 C         142.6258  141.9604  167.7507 C.ar    1  UNL1       -0.0042
@<TRIPOS>BOND
     1     1     2    2
     2     2     3   am
     3     3    16    1
     4    16    17    1
     5    17    18    1
     6    18    19    1
     7    19    20   ar
     8    20    21   ar
     9    21    22   ar
    10    22    23   ar
    11    23    24   ar
    12     2     4   am
    13     4     5    1
    14     5     6    1
    15     6     7    1
    16     7    11    1
    17    11    12   ar
    18    12    13   ar
    19    13    14   ar
    20    14    15   ar
    21     7     8    1
    22     8     9    1
    23    18    16    1
    24    24    19   ar
    25     9     4    1
    26    15    11   ar
    27     3    10    1
@<TRIPOS>MOLECULE
*****
 24 27 0 0 0
SMALL
GASTEIGER

@<TRIPOS>ATOM
      1 O         143.3325  137.5577  160.9481 O.2     1  UNL1       -0.2526
      2 C         141.8826  137.9375  160.8860 C.2     1  UNL1        0.3039
      3 N         141.2466  138.2556  159.5653 N.am    1  UNL1       -0.2901
      4 N         141.0689  137.9991  162.1446 N.am    1  UNL1       -0.2642
      5 C         141.7050  137.6810  163.4653 C.3     1  UNL1        0.0954
      6 C         140.8913  137.7426  164.7239 C.3     1  UNL1        0.0293
      7 C         139.4414  138.1224  164.6617 C.3     1  UNL1        0.0654
      8 C         138.8054  138.4405  163.3411 C.3     1  UNL1        0.0293
      9 C         139.6191  138.3789  162.0825 C.3     1  UNL1        0.0954
     10 H         140.2950  138.5049  159.5245 H       1  UNL1        0.1509
     11 C         138.6277  138.1840  165.9203 C.ar    1  UNL1        0.1806
     12 N         137.5453  137.2248  166.3183 N.ar    1  UNL1       -0.1871
     13 C         137.0021  137.6636  167.6458 C.ar    1  UNL1        0.3161
     14 O         137.7487  138.8940  168.0683 O.2     1  UNL1       -0.3277
     15 N         138.7534  139.2156  167.0019 N.ar    1  UNL1       -0.0600
     16 C         142.0603  138.1940  158.3067 C.3     1  UNL1        0.0774
     17 C         142.9165  138.8726  157.2789 C.3     1  UNL1        0.0259
     18 C         142.6136  137.4087  157.1547 C.3     1  UNL1        0.0420
     19 C         142.7582  136.1101  156.4180 C.ar    1  UNL1       -0.0208
     20 C         142.4050  136.0303  154.9624 C.ar    1  UNL1       -0.0042
     21 C         142.5496  134.7317  154.2257 C.ar    1  UNL1       -0.0003
     22 C         143.0475  133.5130  154.9446 C.ar    1  UNL1       -0.0000
     23 C         143.4007  133.5928  156.4001 C.ar    1  UNL1       -0.0003
     24 C         143.2561  134.8913  157.1368 C.ar    1  UNL1       -0.0042
@<TRIPOS>BOND
     1     1     2    2
     2     2     3   am
     3     3    16    1
     4    16    17    1
     5    17    18    1
     6    18    19    1
     7    19    20   ar
     8    20    21   ar
     9    21    22   ar
    10    22    23   ar
    11    23    24   ar
    12     2     4   am
    13     4     5    1
    14     5     6    1
    15     6     7    1
    16     7    11    1
    17    11    12   ar
    18    12    13   ar
    19    13    14   ar
    20    14    15   ar
    21     7     8    1
    22     8     9    1
    23    18    16    1
    24    24    19   ar
    25     9     4    1
    26    15    11   ar
    27     3    10    1
