@<TRIPOS>MOLECULE
*****
 36 39 0 0 0
SMALL
GASTEIGER

@<TRIPOS>ATOM
      1 O         139.6182  143.9909  159.5565 O.2     1  UNL1       -0.2707
      2 C         140.4022  145.0421  160.2847 C.2     1  UNL1        0.2707
      3 N         141.8865  144.8954  160.4433 N.am    1  UNL1       -0.2808
      4 H         142.4011  145.5853  160.9212 H       1  UNL1        0.1550
      5 C         142.5868  143.6975  159.8737 C.ar    1  UNL1        0.0536
      6 C         142.9260  143.6510  158.4132 C.ar    1  UNL1        0.0353
      7 C         143.6263  142.4531  157.8436 C.ar    1  UNL1        0.1003
      8 N         143.9875  141.3016  158.7344 N.ar    1  UNL1       -0.2392
      9 C         143.6483  141.3480  160.1948 C.ar    1  UNL1        0.1357
     10 C         142.9480  142.5459  160.7645 C.ar    1  UNL1        0.0384
     11 C         144.0095  140.1964  161.0856 C.2     1  UNL1        0.2636
     12 O         144.2746  138.8441  160.4930 O.2     1  UNL1       -0.2685
     13 N         144.1056  140.3971  162.5690 N.am    1  UNL1       -0.2996
     14 H         143.9316  141.2846  162.9580 H       1  UNL1        0.1498
     15 C         144.4667  139.2456  163.4598 C.3     1  UNL1        0.0897
     16 C         143.8231  139.1096  164.8078 C.3     1  UNL1        0.0196
     17 C         143.2422  139.7386  166.0394 C.3     1  UNL1        0.0017
     18 C         143.2893  138.2449  165.9111 C.3     1  UNL1        0.0017
     19 C         139.7018  146.2401  160.8543 C.3     1  UNL1        0.2897
     20 O         138.9320  146.1197  162.1360 O.3     1  UNL1       -0.4656
     21 C         139.1203  144.9182  163.0140 C.ar    1  UNL1        0.1393
     22 C         140.3868  144.7555  163.8011 C.ar    1  UNL1        0.0370
     23 C         140.5751  143.5540  164.6790 C.ar    1  UNL1        0.0063
     24 C         139.4969  142.5151  164.7699 C.ar    1  UNL1        0.0392
     25 C         138.2304  142.6778  163.9829 C.ar    1  UNL1        0.0063
     26 C         138.0421  143.8793  163.1049 C.ar    1  UNL1        0.0370
     27 C         139.6853  141.3136  165.6480 C.2     1  UNL1        0.1961
     28 O         139.8734  141.4868  167.1260 O.2     1  UNL1       -0.2866
     29 C         139.6855  139.9388  165.0480 C.ar    1  UNL1        0.0460
     30 C         140.4716  139.6653  163.8001 C.ar    1  UNL1        0.0151
     31 C         140.4718  138.2905  163.2001 C.ar    1  UNL1        0.0578
     32 CL        141.2579  138.0169  161.9522 Cl      1  UNL1       -0.0822
     33 C         139.6859  137.1893  163.8479 C.ar    1  UNL1        0.0119
     34 C         138.8998  137.4629  165.0958 C.ar    1  UNL1        0.0077
     35 C         138.8996  138.8376  165.6958 C.ar    1  UNL1        0.0377
     36 BR        138.1135  139.1112  166.9437 Br      1  UNL1       -0.0489
@<TRIPOS>BOND
     1     1     2    2
     2     2    19    1
     3    19    20    1
     4    20    21    1
     5    21    22   ar
     6    22    23   ar
     7    23    24   ar
     8    24    27    1
     9    27    28    2
    10    27    29    1
    11    29    30   ar
    12    30    31   ar
    13    31    32    1
    14    31    33   ar
    15    33    34   ar
    16    34    35   ar
    17    35    36    1
    18    24    25   ar
    19    25    26   ar
    20     2     3   am
    21     3     5    1
    22     5     6   ar
    23     6     7   ar
    24     7     8   ar
    25     8     9   ar
    26     9    11    1
    27    11    12    2
    28    11    13   am
    29    13    15    1
    30    15    16    1
    31    16    17    1
    32    17    18    1
    33     9    10   ar
    34    26    21   ar
    35    10     5   ar
    36    35    29   ar
    37    18    16    1
    38     3     4    1
    39    13    14    1
@<TRIPOS>MOLECULE
*****
 36 39 0 0 0
SMALL
GASTEIGER

@<TRIPOS>ATOM
      1 O         139.5210  144.2378  159.5820 O.2     1  UNL1       -0.2707
      2 C         140.3812  145.0531  160.5014 C.2     1  UNL1        0.2707
      3 N         141.8370  144.7252  160.6537 N.am    1  UNL1       -0.2808
      4 H         142.4016  145.2602  161.2572 H       1  UNL1        0.1550
      5 C         142.4325  143.5820  159.8866 C.ar    1  UNL1        0.0536
      6 C         143.0010  143.8126  158.5177 C.ar    1  UNL1        0.0353
      7 C         143.5965  142.6694  157.7506 C.ar    1  UNL1        0.1003
      8 N         143.6235  141.2956  158.3523 N.ar    1  UNL1       -0.2392
      9 C         143.0551  141.0650  159.7211 C.ar    1  UNL1        0.1357
     10 C         142.4595  142.2082  160.4883 C.ar    1  UNL1        0.0384
     11 C         143.0821  139.6912  160.3227 C.2     1  UNL1        0.2636
     12 O         144.3242  138.8556  160.2287 O.2     1  UNL1       -0.2685
     13 N         141.8670  139.1531  161.0184 N.am    1  UNL1       -0.2996
     14 H         141.0518  139.7016  161.0801 H       1  UNL1        0.1498
     15 C         141.8940  137.7793  161.6201 C.3     1  UNL1        0.0897
     16 C         141.1686  137.5088  162.9048 C.3     1  UNL1        0.0196
     17 C         141.1745  137.0128  164.3203 C.3     1  UNL1        0.0017
     18 C         139.9061  137.5362  163.7143 C.3     1  UNL1        0.0017
     19 C         139.7857  146.1963  161.2685 C.3     1  UNL1        0.2897
     20 O         138.7570  145.9335  162.3281 O.3     1  UNL1       -0.4656
     21 C         138.8096  144.6645  163.1262 C.ar    1  UNL1        0.1393
     22 C         138.1264  143.4298  162.6178 C.ar    1  UNL1        0.0370
     23 C         138.1791  142.1609  163.4160 C.ar    1  UNL1        0.0063
     24 C         138.9150  142.1267  164.7226 C.ar    1  UNL1        0.0392
     25 C         139.5982  143.3615  165.2311 C.ar    1  UNL1        0.0063
     26 C         139.5455  144.6304  164.4329 C.ar    1  UNL1        0.0370
     27 C         138.9677  140.8578  165.5208 C.2     1  UNL1        0.1961
     28 O         137.8566  139.8560  165.4110 O.2     1  UNL1       -0.2866
     29 C         140.1313  140.5906  166.4287 C.ar    1  UNL1        0.0460
     30 C         139.9037  140.3719  167.8951 C.ar    1  UNL1        0.0151
     31 C         141.0675  140.1047  168.8031 C.ar    1  UNL1        0.0578
     32 CL        140.8399  139.8859  170.2695 Cl      1  UNL1       -0.0822
     33 C         142.4588  140.0562  168.2446 C.ar    1  UNL1        0.0119
     34 C         142.6864  140.2750  166.7782 C.ar    1  UNL1        0.0077
     35 C         141.5227  140.5421  165.8703 C.ar    1  UNL1        0.0377
     36 BR        141.7503  140.7609  164.4039 Br      1  UNL1       -0.0489
@<TRIPOS>BOND
     1     1     2    2
     2     2    19    1
     3    19    20    1
     4    20    21    1
     5    21    22   ar
     6    22    23   ar
     7    23    24   ar
     8    24    27    1
     9    27    28    2
    10    27    29    1
    11    29    30   ar
    12    30    31   ar
    13    31    32    1
    14    31    33   ar
    15    33    34   ar
    16    34    35   ar
    17    35    36    1
    18    24    25   ar
    19    25    26   ar
    20     2     3   am
    21     3     5    1
    22     5     6   ar
    23     6     7   ar
    24     7     8   ar
    25     8     9   ar
    26     9    11    1
    27    11    12    2
    28    11    13   am
    29    13    15    1
    30    15    16    1
    31    16    17    1
    32    17    18    1
    33     9    10   ar
    34    26    21   ar
    35    10     5   ar
    36    35    29   ar
    37    18    16    1
    38     3     4    1
    39    13    14    1
@<TRIPOS>MOLECULE
*****
 36 39 0 0 0
SMALL
GASTEIGER

@<TRIPOS>ATOM
      1 O         138.3752  143.1543  159.7699 O.2     1  UNL1       -0.2707
      2 C         139.7978  143.5385  159.4895 C.2     1  UNL1        0.2707
      3 N         140.8225  142.4766  159.2206 N.am    1  UNL1       -0.2808
      4 H         141.7562  142.7288  159.0365 H       1  UNL1        0.1550
      5 C         140.4246  141.0304  159.2321 C.ar    1  UNL1        0.0536
      6 C         140.4812  140.2268  157.9667 C.ar    1  UNL1        0.0353
      7 C         140.0833  138.7806  157.9782 C.ar    1  UNL1        0.1003
      8 N         139.6287  138.1380  159.2551 N.ar    1  UNL1       -0.2392
      9 C         139.5721  138.9415  160.5204 C.ar    1  UNL1        0.1357
     10 C         139.9700  140.3878  160.5089 C.ar    1  UNL1        0.0384
     11 C         139.1175  138.2988  161.7973 C.2     1  UNL1        0.2636
     12 O         137.7306  137.7369  161.9018 O.2     1  UNL1       -0.2685
     13 N         140.0497  138.2181  162.9696 N.am    1  UNL1       -0.2996
     14 H         140.9600  138.5868  162.9010 H       1  UNL1        0.1498
     15 C         139.5952  137.5754  164.2464 C.3     1  UNL1        0.0897
     16 C         138.8151  138.3713  165.2504 C.3     1  UNL1        0.0196
     17 C         138.0662  138.4490  166.5477 C.3     1  UNL1        0.0017
     18 C         138.2127  139.6722  165.6919 C.3     1  UNL1        0.0017
     19 C         140.1957  144.9848  159.4779 C.3     1  UNL1        0.2897
     20 O         140.4396  145.7059  160.7704 O.3     1  UNL1       -0.4656
     21 C         141.2283  145.0440  161.8613 C.ar    1  UNL1        0.1393
     22 C         142.5674  144.4402  161.5581 C.ar    1  UNL1        0.0370
     23 C         143.3560  143.7783  162.6489 C.ar    1  UNL1        0.0063
     24 C         142.8055  143.7203  164.0430 C.ar    1  UNL1        0.0392
     25 C         141.4663  144.3241  164.3462 C.ar    1  UNL1        0.0063
     26 C         140.6777  144.9859  163.2554 C.ar    1  UNL1        0.0370
     27 C         143.5941  143.0584  165.1339 C.2     1  UNL1        0.1961
     28 O         144.7856  143.7521  165.7247 O.2     1  UNL1       -0.2866
     29 C         143.1913  141.7028  165.6340 C.ar    1  UNL1        0.0460
     30 C         142.1643  141.5788  166.7202 C.ar    1  UNL1        0.0151
     31 C         141.7614  140.2232  167.2203 C.ar    1  UNL1        0.0578
     32 CL        140.7344  140.0992  168.3065 Cl      1  UNL1       -0.0822
     33 C         142.3856  138.9916  166.6341 C.ar    1  UNL1        0.0119
     34 C         143.4126  139.1156  165.5479 C.ar    1  UNL1        0.0077
     35 C         143.8154  140.4712  165.0478 C.ar    1  UNL1        0.0377
     36 BR        144.8424  140.5951  163.9616 Br      1  UNL1       -0.0489
@<TRIPOS>BOND
     1     1     2    2
     2     2    19    1
     3    19    20    1
     4    20    21    1
     5    21    22   ar
     6    22    23   ar
     7    23    24   ar
     8    24    27    1
     9    27    28    2
    10    27    29    1
    11    29    30   ar
    12    30    31   ar
    13    31    32    1
    14    31    33   ar
    15    33    34   ar
    16    34    35   ar
    17    35    36    1
    18    24    25   ar
    19    25    26   ar
    20     2     3   am
    21     3     5    1
    22     5     6   ar
    23     6     7   ar
    24     7     8   ar
    25     8     9   ar
    26     9    11    1
    27    11    12    2
    28    11    13   am
    29    13    15    1
    30    15    16    1
    31    16    17    1
    32    17    18    1
    33     9    10   ar
    34    26    21   ar
    35    10     5   ar
    36    35    29   ar
    37    18    16    1
    38     3     4    1
    39    13    14    1
@<TRIPOS>MOLECULE
*****
 36 39 0 0 0
SMALL
GASTEIGER

@<TRIPOS>ATOM
      1 O         139.3301  144.1776  160.0431 O.2     1  UNL1       -0.2707
      2 C         140.2459  145.1677  160.6995 C.2     1  UNL1        0.2707
      3 N         141.4484  145.6796  159.9635 N.am    1  UNL1       -0.2808
      4 H         142.0495  146.3295  160.3943 H       1  UNL1        0.1550
      5 C         141.7352  145.2014  158.5710 C.ar    1  UNL1        0.0536
      6 C         141.0798  145.8694  157.3987 C.ar    1  UNL1        0.0353
      7 C         141.3666  145.3911  156.0062 C.ar    1  UNL1        0.1003
      8 N         142.3087  144.2449  155.7860 N.ar    1  UNL1       -0.2392
      9 C         142.9641  143.5769  156.9583 C.ar    1  UNL1        0.1357
     10 C         142.6774  144.0552  158.3508 C.ar    1  UNL1        0.0384
     11 C         143.9063  142.4307  156.7381 C.2     1  UNL1        0.2636
     12 O         143.4563  141.0264  157.0133 O.2     1  UNL1       -0.2685
     13 N         145.2984  142.6886  156.2427 N.am    1  UNL1       -0.2996
     14 H         145.5937  143.6103  156.0620 H       1  UNL1        0.1498
     15 C         146.2405  141.5424  156.0225 C.3     1  UNL1        0.0897
     16 C         147.5987  141.7900  155.4360 C.3     1  UNL1        0.0196
     17 C         148.4577  142.2135  154.2816 C.3     1  UNL1        0.0017
     18 C         149.0923  141.7953  155.5748 C.3     1  UNL1        0.0017
     19 C         139.9590  145.6460  162.0920 C.3     1  UNL1        0.2897
     20 O         138.7446  145.1507  162.8199 O.3     1  UNL1       -0.4656
     21 C         138.8229  143.9011  163.6460 C.ar    1  UNL1        0.1393
     22 C         137.8771  142.7672  163.3823 C.ar    1  UNL1        0.0370
     23 C         137.9554  141.5177  164.2084 C.ar    1  UNL1        0.0063
     24 C         138.9797  141.4020  165.2981 C.ar    1  UNL1        0.0392
     25 C         139.9256  142.5359  165.5618 C.ar    1  UNL1        0.0063
     26 C         139.8472  143.7854  164.7357 C.ar    1  UNL1        0.0370
     27 C         139.0580  140.1524  166.1242 C.2     1  UNL1        0.1961
     28 O         138.0469  139.0613  165.9315 O.2     1  UNL1       -0.2866
     29 C         140.1474  139.9939  167.1430 C.ar    1  UNL1        0.0460
     30 C         139.8821  140.3230  168.5822 C.ar    1  UNL1        0.0151
     31 C         140.9716  140.1645  169.6010 C.ar    1  UNL1        0.0578
     32 CL        140.7063  140.4935  171.0402 Cl      1  UNL1       -0.0822
     33 C         142.3264  139.6769  169.1806 C.ar    1  UNL1        0.0119
     34 C         142.5917  139.3478  167.7414 C.ar    1  UNL1        0.0077
     35 C         141.5023  139.5063  166.7226 C.ar    1  UNL1        0.0377
     36 BR        141.7677  139.1772  165.2834 Br      1  UNL1       -0.0489
@<TRIPOS>BOND
     1     1     2    2
     2     2    19    1
     3    19    20    1
     4    20    21    1
     5    21    22   ar
     6    22    23   ar
     7    23    24   ar
     8    24    27    1
     9    27    28    2
    10    27    29    1
    11    29    30   ar
    12    30    31   ar
    13    31    32    1
    14    31    33   ar
    15    33    34   ar
    16    34    35   ar
    17    35    36    1
    18    24    25   ar
    19    25    26   ar
    20     2     3   am
    21     3     5    1
    22     5     6   ar
    23     6     7   ar
    24     7     8   ar
    25     8     9   ar
    26     9    11    1
    27    11    12    2
    28    11    13   am
    29    13    15    1
    30    15    16    1
    31    16    17    1
    32    17    18    1
    33     9    10   ar
    34    26    21   ar
    35    10     5   ar
    36    35    29   ar
    37    18    16    1
    38     3     4    1
    39    13    14    1
@<TRIPOS>MOLECULE
*****
 36 39 0 0 0
SMALL
GASTEIGER

@<TRIPOS>ATOM
      1 O         140.2175  140.4173  158.2737 O.2     1  UNL1       -0.2707
      2 C         141.7077  140.4346  158.1038 C.2     1  UNL1        0.2707
      3 N         142.4553  141.7332  158.1721 N.am    1  UNL1       -0.2808
      4 H         143.4334  141.7446  158.0606 H       1  UNL1        0.1550
      5 C         141.7127  143.0145  158.4103 C.ar    1  UNL1        0.0536
      6 C         141.1987  143.8108  157.2476 C.ar    1  UNL1        0.0353
      7 C         140.4561  145.0921  157.4858 C.ar    1  UNL1        0.1003
      8 N         140.2273  145.5771  158.8867 N.ar    1  UNL1       -0.2392
      9 C         140.7412  144.7808  160.0494 C.ar    1  UNL1        0.1357
     10 C         141.4839  143.4995  159.8112 C.ar    1  UNL1        0.0384
     11 C         140.5124  145.2658  161.4503 C.2     1  UNL1        0.2636
     12 O         139.8888  146.6095  161.6863 O.2     1  UNL1       -0.2685
     13 N         140.9072  144.4071  162.6151 N.am    1  UNL1       -0.2996
     14 H         141.3165  143.5252  162.4601 H       1  UNL1        0.1498
     15 C         140.6784  144.8921  164.0159 C.3     1  UNL1        0.0897
     16 C         139.3307  144.7316  164.6545 C.3     1  UNL1        0.0196
     17 C         138.3887  145.0108  165.7879 C.3     1  UNL1        0.0017
     18 C         137.9383  144.1745  164.6270 C.3     1  UNL1        0.0017
     19 C         142.4504  139.1533  157.8656 C.3     1  UNL1        0.2897
     20 O         143.6211  138.7929  158.7313 O.3     1  UNL1       -0.4656
     21 C         143.5068  138.8856  160.2241 C.ar    1  UNL1        0.1393
     22 C         144.2311  139.9696  160.9658 C.ar    1  UNL1        0.0370
     23 C         144.1168  140.0623  162.4586 C.ar    1  UNL1        0.0063
     24 C         143.2780  139.0710  163.2095 C.ar    1  UNL1        0.0392
     25 C         142.5537  137.9870  162.4677 C.ar    1  UNL1        0.0063
     26 C         142.6680  137.8943  160.9750 C.ar    1  UNL1        0.0370
     27 C         143.1637  139.1637  164.7023 C.2     1  UNL1        0.1961
     28 O         144.2416  138.5909  165.5741 O.2     1  UNL1       -0.2866
     29 C         141.9715  139.8293  165.3233 C.ar    1  UNL1        0.0460
     30 C         140.6925  139.0654  165.4983 C.ar    1  UNL1        0.0151
     31 C         139.5003  139.7310  166.1193 C.ar    1  UNL1        0.0578
     32 CL        138.2213  138.9671  166.2944 Cl      1  UNL1       -0.0822
     33 C         139.5871  141.1605  166.5653 C.ar    1  UNL1        0.0119
     34 C         140.8660  141.9245  166.3902 C.ar    1  UNL1        0.0077
     35 C         142.0582  141.2589  165.7693 C.ar    1  UNL1        0.0377
     36 BR        143.3372  142.0229  165.5943 Br      1  UNL1       -0.0489
@<TRIPOS>BOND
     1     1     2    2
     2     2    19    1
     3    19    20    1
     4    20    21    1
     5    21    22   ar
     6    22    23   ar
     7    23    24   ar
     8    24    27    1
     9    27    28    2
    10    27    29    1
    11    29    30   ar
    12    30    31   ar
    13    31    32    1
    14    31    33   ar
    15    33    34   ar
    16    34    35   ar
    17    35    36    1
    18    24    25   ar
    19    25    26   ar
    20     2     3   am
    21     3     5    1
    22     5     6   ar
    23     6     7   ar
    24     7     8   ar
    25     8     9   ar
    26     9    11    1
    27    11    12    2
    28    11    13   am
    29    13    15    1
    30    15    16    1
    31    16    17    1
    32    17    18    1
    33     9    10   ar
    34    26    21   ar
    35    10     5   ar
    36    35    29   ar
    37    18    16    1
    38     3     4    1
    39    13    14    1
@<TRIPOS>MOLECULE
*****
 36 39 0 0 0
SMALL
GASTEIGER

@<TRIPOS>ATOM
      1 O         139.4753  144.0004  159.8509 O.2     1  UNL1       -0.2707
      2 C         140.4080  145.0022  160.4646 C.2     1  UNL1        0.2707
      3 N         141.8916  144.8216  160.3378 N.am    1  UNL1       -0.2808
      4 H         142.5037  145.4791  160.7406 H       1  UNL1        0.1550
      5 C         142.4426  143.6393  159.5973 C.ar    1  UNL1        0.0536
      6 C         142.9455  143.8014  158.1934 C.ar    1  UNL1        0.0353
      7 C         143.4966  142.6190  157.4529 C.ar    1  UNL1        0.1003
      8 N         143.5447  141.2745  158.1162 N.ar    1  UNL1       -0.2392
      9 C         143.0418  141.1124  159.5200 C.ar    1  UNL1        0.1357
     10 C         142.4907  142.2948  160.2606 C.ar    1  UNL1        0.0384
     11 C         143.0899  139.7679  160.1833 C.2     1  UNL1        0.2636
     12 O         144.3936  139.0349  160.2992 O.2     1  UNL1       -0.2685
     13 N         141.8345  139.1563  160.7308 N.am    1  UNL1       -0.2996
     14 H         140.9789  139.6374  160.6548 H       1  UNL1        0.1498
     15 C         141.8826  137.8118  161.3941 C.3     1  UNL1        0.0897
     16 C         141.1456  137.5833  162.6805 C.3     1  UNL1        0.0196
     17 C         141.1040  137.0259  164.0724 C.3     1  UNL1        0.0017
     18 C         139.9108  137.7450  163.5165 C.3     1  UNL1        0.0017
     19 C         139.8569  146.1846  161.2051 C.3     1  UNL1        0.2897
     20 O         139.4365  146.0428  162.6380 O.3     1  UNL1       -0.4656
     21 C         139.8768  144.8502  163.4342 C.ar    1  UNL1        0.1393
     22 C         141.2860  144.7655  163.9411 C.ar    1  UNL1        0.0370
     23 C         141.7262  143.5730  164.7373 C.ar    1  UNL1        0.0063
     24 C         140.7572  142.4651  165.0267 C.ar    1  UNL1        0.0392
     25 C         139.3480  142.5498  164.5198 C.ar    1  UNL1        0.0063
     26 C         138.9078  143.7424  163.7236 C.ar    1  UNL1        0.0370
     27 C         141.1975  141.2725  165.8230 C.2     1  UNL1        0.1961
     28 O         142.0199  140.1993  165.1736 O.2     1  UNL1       -0.2866
     29 C         140.8153  141.1533  167.2685 C.ar    1  UNL1        0.0460
     30 C         141.5796  141.9135  168.3116 C.ar    1  UNL1        0.0151
     31 C         141.1974  141.7941  169.7572 C.ar    1  UNL1        0.0578
     32 CL        141.9617  142.5543  170.8002 Cl      1  UNL1       -0.0822
     33 C         140.0509  140.9147  170.1597 C.ar    1  UNL1        0.0119
     34 C         139.2866  140.1545  169.1166 C.ar    1  UNL1        0.0077
     35 C         139.6687  140.2738  167.6711 C.ar    1  UNL1        0.0377
     36 BR        138.9044  139.5136  166.6280 Br      1  UNL1       -0.0489
@<TRIPOS>BOND
     1     1     2    2
     2     2    19    1
     3    19    20    1
     4    20    21    1
     5    21    22   ar
     6    22    23   ar
     7    23    24   ar
     8    24    27    1
     9    27    28    2
    10    27    29    1
    11    29    30   ar
    12    30    31   ar
    13    31    32    1
    14    31    33   ar
    15    33    34   ar
    16    34    35   ar
    17    35    36    1
    18    24    25   ar
    19    25    26   ar
    20     2     3   am
    21     3     5    1
    22     5     6   ar
    23     6     7   ar
    24     7     8   ar
    25     8     9   ar
    26     9    11    1
    27    11    12    2
    28    11    13   am
    29    13    15    1
    30    15    16    1
    31    16    17    1
    32    17    18    1
    33     9    10   ar
    34    26    21   ar
    35    10     5   ar
    36    35    29   ar
    37    18    16    1
    38     3     4    1
    39    13    14    1
@<TRIPOS>MOLECULE
*****
 36 39 0 0 0
SMALL
GASTEIGER

@<TRIPOS>ATOM
      1 O         139.8600  143.4035  159.3591 O.2     1  UNL1       -0.2707
      2 C         140.7052  144.5950  159.6993 C.2     1  UNL1        0.2707
      3 N         142.1998  144.4713  159.7263 N.am    1  UNL1       -0.2808
      4 H         142.7546  145.2533  159.9496 H       1  UNL1        0.1550
      5 C         142.8492  143.1559  159.4131 C.ar    1  UNL1        0.0536
      6 C         143.7754  143.0374  158.2391 C.ar    1  UNL1        0.0353
      7 C         144.4248  141.7221  157.9258 C.ar    1  UNL1        0.1003
      8 N         144.1480  140.5252  158.7866 N.ar    1  UNL1       -0.2392
      9 C         143.2219  140.6436  159.9605 C.ar    1  UNL1        0.1357
     10 C         142.5725  141.9590  160.2738 C.ar    1  UNL1        0.0384
     11 C         142.9451  139.4467  160.8212 C.2     1  UNL1        0.2636
     12 O         144.0680  138.5380  161.2257 O.2     1  UNL1       -0.2685
     13 N         141.5456  139.1585  161.2774 N.am    1  UNL1       -0.2996
     14 H         140.8087  139.7549  161.0119 H       1  UNL1        0.1498
     15 C         141.2689  137.9616  162.1381 C.3     1  UNL1        0.0897
     16 C         139.9090  137.7700  162.7415 C.3     1  UNL1        0.0196
     17 C         139.0459  137.4791  163.9333 C.3     1  UNL1        0.0017
     18 C         138.4168  137.7289  162.5947 C.3     1  UNL1        0.0017
     19 C         140.0558  145.9104  160.0126 C.3     1  UNL1        0.2897
     20 O         139.4871  146.1598  161.3780 O.3     1  UNL1       -0.4656
     21 C         139.8736  145.2734  162.5248 C.ar    1  UNL1        0.1393
     22 C         141.2623  145.3385  163.0880 C.ar    1  UNL1        0.0370
     23 C         141.6488  144.4522  164.2348 C.ar    1  UNL1        0.0063
     24 C         140.6466  143.5008  164.8182 C.ar    1  UNL1        0.0392
     25 C         139.2579  143.4357  164.2550 C.ar    1  UNL1        0.0063
     26 C         138.8714  144.3220  163.1082 C.ar    1  UNL1        0.0370
     27 C         141.0331  142.6145  165.9650 C.2     1  UNL1        0.1961
     28 O         140.6805  143.0078  167.3689 O.2     1  UNL1       -0.2866
     29 C         141.7722  141.3348  165.7079 C.ar    1  UNL1        0.0460
     30 C         143.1485  141.3702  165.1123 C.ar    1  UNL1        0.0151
     31 C         143.8876  140.0905  164.8552 C.ar    1  UNL1        0.0578
     32 CL        145.2638  140.1259  164.2596 Cl      1  UNL1       -0.0822
     33 C         143.2505  138.7754  165.1937 C.ar    1  UNL1        0.0119
     34 C         141.8742  138.7400  165.7893 C.ar    1  UNL1        0.0077
     35 C         141.1351  140.0196  166.0464 C.ar    1  UNL1        0.0377
     36 BR        139.7589  139.9842  166.6420 Br      1  UNL1       -0.0489
@<TRIPOS>BOND
     1     1     2    2
     2     2    19    1
     3    19    20    1
     4    20    21    1
     5    21    22   ar
     6    22    23   ar
     7    23    24   ar
     8    24    27    1
     9    27    28    2
    10    27    29    1
    11    29    30   ar
    12    30    31   ar
    13    31    32    1
    14    31    33   ar
    15    33    34   ar
    16    34    35   ar
    17    35    36    1
    18    24    25   ar
    19    25    26   ar
    20     2     3   am
    21     3     5    1
    22     5     6   ar
    23     6     7   ar
    24     7     8   ar
    25     8     9   ar
    26     9    11    1
    27    11    12    2
    28    11    13   am
    29    13    15    1
    30    15    16    1
    31    16    17    1
    32    17    18    1
    33     9    10   ar
    34    26    21   ar
    35    10     5   ar
    36    35    29   ar
    37    18    16    1
    38     3     4    1
    39    13    14    1
@<TRIPOS>MOLECULE
*****
 36 39 0 0 0
SMALL
GASTEIGER

@<TRIPOS>ATOM
      1 O         139.7365  139.9663  161.1964 O.2     1  UNL1       -0.2707
      2 C         138.3175  139.7612  161.6372 C.2     1  UNL1        0.2707
      3 N         137.4768  140.9393  162.0312 N.am    1  UNL1       -0.2808
      4 H         136.5454  140.8047  162.3205 H       1  UNL1        0.1550
      5 C         138.0551  142.3225  161.9844 C.ar    1  UNL1        0.0536
      6 C         137.7731  143.2913  163.0944 C.ar    1  UNL1        0.0353
      7 C         138.3515  144.6745  163.0476 C.ar    1  UNL1        0.1003
      8 N         139.2118  145.0889  161.8908 N.ar    1  UNL1       -0.2392
      9 C         139.4939  144.1202  160.7809 C.ar    1  UNL1        0.1357
     10 C         138.9155  142.7369  160.8277 C.ar    1  UNL1        0.0384
     11 C         140.3542  144.5347  159.6242 C.2     1  UNL1        0.2636
     12 O         141.7021  143.9059  159.4289 O.2     1  UNL1       -0.2685
     13 N         139.8668  145.5778  158.6628 N.am    1  UNL1       -0.2996
     14 H         138.9822  145.9904  158.7910 H       1  UNL1        0.1498
     15 C         140.7272  145.9922  157.5061 C.3     1  UNL1        0.0897
     16 C         140.0965  146.5454  156.2627 C.3     1  UNL1        0.0196
     17 C         140.1969  146.9328  154.8171 C.3     1  UNL1        0.0017
     18 C         138.9037  147.1162  155.5546 C.3     1  UNL1        0.0017
     19 C         137.7391  138.3779  161.6840 C.3     1  UNL1        0.2897
     20 O         138.1831  137.4149  162.7449 O.3     1  UNL1       -0.4656
     21 C         139.3320  137.7658  163.6432 C.ar    1  UNL1        0.1393
     22 C         140.7102  137.2643  163.3288 C.ar    1  UNL1        0.0370
     23 C         141.8590  137.6152  164.2271 C.ar    1  UNL1        0.0063
     24 C         141.6296  138.4678  165.4398 C.ar    1  UNL1        0.0392
     25 C         140.2514  138.9694  165.7541 C.ar    1  UNL1        0.0063
     26 C         139.1026  138.6184  164.8558 C.ar    1  UNL1        0.0370
     27 C         142.7785  138.8188  166.3381 C.2     1  UNL1        0.1961
     28 O         144.0372  138.0037  166.2991 O.2     1  UNL1       -0.2866
     29 C         142.6688  139.9847  167.2753 C.ar    1  UNL1        0.0460
     30 C         142.2681  139.7636  168.7038 C.ar    1  UNL1        0.0151
     31 C         142.1584  140.9296  169.6411 C.ar    1  UNL1        0.0578
     32 CL        141.7578  140.7085  171.0696 Cl      1  UNL1       -0.0822
     33 C         142.4492  142.3167  169.1498 C.ar    1  UNL1        0.0119
     34 C         142.8498  142.5378  167.7213 C.ar    1  UNL1        0.0077
     35 C         142.9596  141.3719  166.7841 C.ar    1  UNL1        0.0377
     36 BR        143.3602  141.5930  165.3556 Br      1  UNL1       -0.0489
@<TRIPOS>BOND
     1     1     2    2
     2     2    19    1
     3    19    20    1
     4    20    21    1
     5    21    22   ar
     6    22    23   ar
     7    23    24   ar
     8    24    27    1
     9    27    28    2
    10    27    29    1
    11    29    30   ar
    12    30    31   ar
    13    31    32    1
    14    31    33   ar
    15    33    34   ar
    16    34    35   ar
    17    35    36    1
    18    24    25   ar
    19    25    26   ar
    20     2     3   am
    21     3     5    1
    22     5     6   ar
    23     6     7   ar
    24     7     8   ar
    25     8     9   ar
    26     9    11    1
    27    11    12    2
    28    11    13   am
    29    13    15    1
    30    15    16    1
    31    16    17    1
    32    17    18    1
    33     9    10   ar
    34    26    21   ar
    35    10     5   ar
    36    35    29   ar
    37    18    16    1
    38     3     4    1
    39    13    14    1
@<TRIPOS>MOLECULE
*****
 36 39 0 0 0
SMALL
GASTEIGER

@<TRIPOS>ATOM
      1 O         141.6105  144.2942  159.9534 O.2     1  UNL1       -0.2707
      2 C         140.2069  144.6566  160.3391 C.2     1  UNL1        0.2707
      3 N         139.1017  143.6559  160.1744 N.am    1  UNL1       -0.2808
      4 H         138.1806  143.8938  160.4275 H       1  UNL1        0.1550
      5 C         139.4001  142.2928  159.6241 C.ar    1  UNL1        0.0536
      6 C         138.6246  141.7714  158.4507 C.ar    1  UNL1        0.0353
      7 C         138.9230  140.4084  157.9004 C.ar    1  UNL1        0.1003
      8 N         139.9969  139.5666  158.5234 N.ar    1  UNL1       -0.2392
      9 C         140.7724  140.0879  159.6968 C.ar    1  UNL1        0.1357
     10 C         140.4740  141.4510  160.2471 C.ar    1  UNL1        0.0384
     11 C         141.8463  139.2461  160.3198 C.2     1  UNL1        0.2636
     12 O         142.2500  137.9509  159.6797 O.2     1  UNL1       -0.2685
     13 N         142.5164  139.6994  161.5828 N.am    1  UNL1       -0.2996
     14 H         142.2514  140.5494  162.0029 H       1  UNL1        0.1498
     15 C         143.5903  138.8576  162.2059 C.3     1  UNL1        0.0897
     16 C         144.4759  139.4375  163.2686 C.3     1  UNL1        0.0196
     17 C         145.2592  139.2759  164.5375 C.3     1  UNL1        0.0017
     18 C         145.2266  140.6036  163.8403 C.3     1  UNL1        0.0017
     19 C         139.9086  146.0198  160.8894 C.3     1  UNL1        0.2897
     20 O         139.7630  146.2158  162.3694 O.3     1  UNL1       -0.4656
     21 C         139.8490  145.0377  163.2940 C.ar    1  UNL1        0.1393
     22 C         138.5969  144.3475  163.7478 C.ar    1  UNL1        0.0370
     23 C         138.6829  143.1695  164.6724 C.ar    1  UNL1        0.0063
     24 C         140.0210  142.6817  165.1431 C.ar    1  UNL1        0.0392
     25 C         141.2731  143.3718  164.6892 C.ar    1  UNL1        0.0063
     26 C         141.1870  144.5498  163.7647 C.ar    1  UNL1        0.0370
     27 C         140.1070  141.5036  166.0677 C.2     1  UNL1        0.1961
     28 O         139.9061  141.6913  167.5423 O.2     1  UNL1       -0.2866
     29 C         140.3939  140.1379  165.5177 C.ar    1  UNL1        0.0460
     30 C         139.4464  139.5090  164.5396 C.ar    1  UNL1        0.0151
     31 C         139.7333  138.1432  163.9897 C.ar    1  UNL1        0.0578
     32 CL        138.7858  137.5142  163.0116 Cl      1  UNL1       -0.0822
     33 C         140.9678  137.4065  164.4177 C.ar    1  UNL1        0.0119
     34 C         141.9153  138.0354  165.3958 C.ar    1  UNL1        0.0077
     35 C         141.6284  139.4011  165.9458 C.ar    1  UNL1        0.0377
     36 BR        142.5760  140.0300  166.9238 Br      1  UNL1       -0.0489
@<TRIPOS>BOND
     1     1     2    2
     2     2    19    1
     3    19    20    1
     4    20    21    1
     5    21    22   ar
     6    22    23   ar
     7    23    24   ar
     8    24    27    1
     9    27    28    2
    10    27    29    1
    11    29    30   ar
    12    30    31   ar
    13    31    32    1
    14    31    33   ar
    15    33    34   ar
    16    34    35   ar
    17    35    36    1
    18    24    25   ar
    19    25    26   ar
    20     2     3   am
    21     3     5    1
    22     5     6   ar
    23     6     7   ar
    24     7     8   ar
    25     8     9   ar
    26     9    11    1
    27    11    12    2
    28    11    13   am
    29    13    15    1
    30    15    16    1
    31    16    17    1
    32    17    18    1
    33     9    10   ar
    34    26    21   ar
    35    10     5   ar
    36    35    29   ar
    37    18    16    1
    38     3     4    1
    39    13    14    1
