@<TRIPOS>MOLECULE
*****
 33 37 0 0 0
SMALL
GASTEIGER

@<TRIPOS>ATOM
      1 C         141.5444  138.4537  159.5658 C.ar    1  UNL1        0.0839
      2 C         140.0604  138.5883  159.3939 C.ar    1  UNL1        0.0192
      3 C         139.1497  138.4096  160.5724 C.ar    1  UNL1        0.0030
      4 C         139.7230  138.0964  161.9226 C.ar    1  UNL1        0.0174
      5 C         138.8123  137.9178  163.1011 C.ar    1  UNL1       -0.0027
      6 C         139.3856  137.6045  164.4513 C.ar    1  UNL1       -0.0207
      7 C         140.8697  137.4700  164.6231 C.ar    1  UNL1       -0.0027
      8 C         141.7804  137.6486  163.4447 C.ar    1  UNL1        0.0188
      9 C         141.2070  137.9618  162.0944 C.ar    1  UNL1        0.0812
     10 N         142.1177  138.1405  160.9160 N.ar    1  UNL1       -0.2453
     11 C         143.0812  141.2084  158.7294 C.3     1  UNL1        0.0523
     12 C         143.1615  139.8986  158.0029 C.ar    1  UNL1        0.0655
     13 C         142.4551  138.6324  158.3873 C.ar    1  UNL1        0.0522
     14 C         142.8193  137.5762  157.3864 C.ar    1  UNL1        0.1232
     15 N         143.7508  138.1896  156.3834 N.ar    1  UNL1       -0.1624
     16 N         143.9623  139.6250  156.7644 N.ar    1  UNL1       -0.2145
     17 C         144.8234  140.6132  156.0350 C.ar    1  UNL1        0.1847
     18 C         144.6611  140.8011  154.5557 C.ar    1  UNL1        0.0435
     19 C         145.5222  141.7893  153.8263 C.ar    1  UNL1        0.0393
     20 C         146.5455  142.5896  154.5763 C.ar    1  UNL1        0.1537
     21 N         146.7078  142.4016  156.0556 N.ar    1  UNL1       -0.1314
     22 N         145.8467  141.4134  156.7850 N.ar    1  UNL1       -0.1273
     23 N         147.4066  143.5777  153.8469 N.pl3   1  UNL1       -0.2883
     24 C         146.9415  144.9932  153.6731 C.3     1  UNL1        0.1137
     25 C         148.7328  143.1505  153.2913 C.3     1  UNL1        0.1137
     26 C         138.4750  137.4259  165.6297 C.3     1  UNL1        0.0437
     27 C         138.0216  138.6207  166.4152 C.3     1  UNL1        0.0768
     28 N         138.9387  139.7946  166.5912 N.3     1  UNL1       -0.2737
     29 C         139.9411  139.9731  167.6927 C.3     1  UNL1        0.0721
     30 C         140.6363  141.2849  167.4788 C.3     1  UNL1        0.0187
     31 C         140.0636  141.9172  166.2450 C.3     1  UNL1        0.0174
     32 C         139.0144  140.9961  165.6964 C.3     1  UNL1        0.0576
     33 C         138.1864  141.2347  164.4687 C.3     1  UNL1        0.0173
@<TRIPOS>BOND
     1    11    12    1
     2    12    13   ar
     3    13     1    1
     4     1     2   ar
     5     2     3   ar
     6     3     4   ar
     7     4     5   ar
     8     5     6   ar
     9     6    26    1
    10    26    27    1
    11    27    28    1
    12    28    29    1
    13    29    30    1
    14    30    31    1
    15    31    32    1
    16    32    33    1
    17     6     7   ar
    18     7     8   ar
    19     8     9   ar
    20     9    10   ar
    21    13    14   ar
    22    14    15   ar
    23    15    16   ar
    24    16    17    1
    25    17    18   ar
    26    18    19   ar
    27    19    20   ar
    28    20    23    1
    29    23    24    1
    30    23    25    1
    31    20    21   ar
    32    21    22   ar
    33    16    12   ar
    34    22    17   ar
    35    10     1   ar
    36     9     4   ar
    37    32    28    1
@<TRIPOS>MOLECULE
*****
 33 37 0 0 0
SMALL
GASTEIGER

@<TRIPOS>ATOM
      1 C         142.2475  144.1149  161.2279 C.ar    1  UNL1        0.0839
      2 C         141.0476  144.9832  161.4651 C.ar    1  UNL1        0.0192
      3 C         140.3513  145.6329  160.3062 C.ar    1  UNL1        0.0030
      4 C         140.8548  145.4143  158.9103 C.ar    1  UNL1        0.0174
      5 C         140.1584  146.0641  157.7514 C.ar    1  UNL1       -0.0027
      6 C         140.6620  145.8455  156.3555 C.ar    1  UNL1       -0.0207
      7 C         141.8620  144.9773  156.1184 C.ar    1  UNL1       -0.0027
      8 C         142.5583  144.3276  157.2772 C.ar    1  UNL1        0.0188
      9 C         142.0548  144.5461  158.6732 C.ar    1  UNL1        0.0812
     10 N         142.7511  143.8964  159.8320 N.ar    1  UNL1       -0.2453
     11 C         140.8193  142.9870  163.9368 C.3     1  UNL1        0.0523
     12 C         142.2875  142.9467  163.6319 C.ar    1  UNL1        0.0655
     13 C         142.9440  143.4652  162.3868 C.ar    1  UNL1        0.0522
     14 C         144.4191  143.2198  162.5040 C.ar    1  UNL1        0.1232
     15 N         144.6743  142.5497  163.8215 N.ar    1  UNL1       -0.1624
     16 N         143.3569  142.3809  164.5186 N.ar    1  UNL1       -0.2145
     17 C         143.1459  141.7561  165.8658 C.ar    1  UNL1        0.1847
     18 C         142.7981  140.3008  165.9715 C.ar    1  UNL1        0.0435
     19 C         142.5872  139.6759  167.3187 C.ar    1  UNL1        0.0393
     20 C         142.7239  140.5064  168.5603 C.ar    1  UNL1        0.1537
     21 N         143.0717  141.9617  168.4547 N.ar    1  UNL1       -0.1314
     22 N         143.2826  142.5866  167.1074 N.ar    1  UNL1       -0.1273
     23 N         142.5129  139.8816  169.9075 N.pl3   1  UNL1       -0.2883
     24 C         142.7807  138.4191  170.1062 C.3     1  UNL1        0.1137
     25 C         142.0343  140.7192  171.0561 C.3     1  UNL1        0.1137
     26 C         139.9656  146.4952  155.1967 C.3     1  UNL1        0.0437
     27 C         138.7912  147.3970  155.4371 C.3     1  UNL1        0.0768
     28 N         138.9562  148.8848  155.3419 N.3     1  UNL1       -0.2737
     29 C         139.4918  149.6388  154.1609 C.3     1  UNL1        0.0721
     30 C         139.4812  151.0999  154.5001 C.3     1  UNL1        0.0187
     31 C         138.9391  151.2489  155.8908 C.3     1  UNL1        0.0174
     32 C         138.6147  149.8800  156.4111 C.3     1  UNL1        0.0576
     33 C         138.0482  149.5620  157.7631 C.3     1  UNL1        0.0173
@<TRIPOS>BOND
     1    11    12    1
     2    12    13   ar
     3    13     1    1
     4     1     2   ar
     5     2     3   ar
     6     3     4   ar
     7     4     5   ar
     8     5     6   ar
     9     6    26    1
    10    26    27    1
    11    27    28    1
    12    28    29    1
    13    29    30    1
    14    30    31    1
    15    31    32    1
    16    32    33    1
    17     6     7   ar
    18     7     8   ar
    19     8     9   ar
    20     9    10   ar
    21    13    14   ar
    22    14    15   ar
    23    15    16   ar
    24    16    17    1
    25    17    18   ar
    26    18    19   ar
    27    19    20   ar
    28    20    23    1
    29    23    24    1
    30    23    25    1
    31    20    21   ar
    32    21    22   ar
    33    16    12   ar
    34    22    17   ar
    35    10     1   ar
    36     9     4   ar
    37    32    28    1
@<TRIPOS>MOLECULE
*****
 33 37 0 0 0
SMALL
GASTEIGER

@<TRIPOS>ATOM
      1 C         140.9232  139.5268  161.9390 C.ar    1  UNL1        0.0839
      2 C         140.6135  138.1617  162.4779 C.ar    1  UNL1        0.0192
      3 C         140.1848  137.9986  163.9060 C.ar    1  UNL1        0.0030
      4 C         140.0659  139.2007  164.7953 C.ar    1  UNL1        0.0174
      5 C         139.6373  139.0376  166.2235 C.ar    1  UNL1       -0.0027
      6 C         139.5183  140.2397  167.1128 C.ar    1  UNL1       -0.0207
      7 C         139.8281  141.6049  166.5739 C.ar    1  UNL1       -0.0027
      8 C         140.2568  141.7679  165.1458 C.ar    1  UNL1        0.0188
      9 C         140.3757  140.5659  164.2565 C.ar    1  UNL1        0.0812
     10 N         140.8043  140.7289  162.8283 N.ar    1  UNL1       -0.2453
     11 C         143.9045  140.3720  160.9157 C.3     1  UNL1        0.0523
     12 C         142.7223  140.0784  160.0405 C.ar    1  UNL1        0.0655
     13 C         141.3519  139.6900  160.5108 C.ar    1  UNL1        0.0522
     14 C         140.4855  139.4933  159.3023 C.ar    1  UNL1        0.1232
     15 N         141.3204  139.7602  158.0850 N.ar    1  UNL1       -0.1624
     16 N         142.7028  140.1218  158.5412 N.ar    1  UNL1       -0.2145
     17 C         143.8622  140.4664  157.6540 C.ar    1  UNL1        0.1847
     18 C         144.4882  141.8272  157.7325 C.ar    1  UNL1        0.0435
     19 C         145.6475  142.1718  156.8453 C.ar    1  UNL1        0.0393
     20 C         146.1809  141.1554  155.8796 C.ar    1  UNL1        0.1537
     21 N         145.5549  139.7945  155.8011 N.ar    1  UNL1       -0.1314
     22 N         144.3955  139.4500  156.6884 N.ar    1  UNL1       -0.1273
     23 N         147.3402  141.5000  154.9924 N.pl3   1  UNL1       -0.2883
     24 C         148.6860  141.7813  155.5922 C.3     1  UNL1        0.1137
     25 C         147.1538  141.5631  153.5054 C.3     1  UNL1        0.1137
     26 C         139.0897  140.0766  168.5410 C.3     1  UNL1        0.0437
     27 C         140.1187  140.0175  169.6308 C.3     1  UNL1        0.0768
     28 N         141.2479  141.0046  169.6505 N.3     1  UNL1       -0.2737
     29 C         141.2910  142.2795  170.4396 C.3     1  UNL1        0.0721
     30 C         142.6020  142.9530  170.1613 C.3     1  UNL1        0.0187
     31 C         143.3693  142.0943  169.2000 C.3     1  UNL1        0.0174
     32 C         142.5324  140.8901  168.8844 C.3     1  UNL1        0.0576
     33 C         142.9133  139.7685  167.9641 C.3     1  UNL1        0.0173
@<TRIPOS>BOND
     1    11    12    1
     2    12    13   ar
     3    13     1    1
     4     1     2   ar
     5     2     3   ar
     6     3     4   ar
     7     4     5   ar
     8     5     6   ar
     9     6    26    1
    10    26    27    1
    11    27    28    1
    12    28    29    1
    13    29    30    1
    14    30    31    1
    15    31    32    1
    16    32    33    1
    17     6     7   ar
    18     7     8   ar
    19     8     9   ar
    20     9    10   ar
    21    13    14   ar
    22    14    15   ar
    23    15    16   ar
    24    16    17    1
    25    17    18   ar
    26    18    19   ar
    27    19    20   ar
    28    20    23    1
    29    23    24    1
    30    23    25    1
    31    20    21   ar
    32    21    22   ar
    33    16    12   ar
    34    22    17   ar
    35    10     1   ar
    36     9     4   ar
    37    32    28    1
@<TRIPOS>MOLECULE
*****
 33 37 0 0 0
SMALL
GASTEIGER

@<TRIPOS>ATOM
      1 C         143.3078  143.1317  160.4432 C.ar    1  UNL1        0.0839
      2 C         143.9592  142.7570  159.1450 C.ar    1  UNL1        0.0192
      3 C         143.4771  143.3648  157.8612 C.ar    1  UNL1        0.0030
      4 C         142.3437  144.3473  157.8756 C.ar    1  UNL1        0.0174
      5 C         141.8617  144.9550  156.5917 C.ar    1  UNL1       -0.0027
      6 C         140.7282  145.9375  156.6060 C.ar    1  UNL1       -0.0207
      7 C         140.0769  146.3121  157.9043 C.ar    1  UNL1       -0.0027
      8 C         140.5589  145.7044  159.1881 C.ar    1  UNL1        0.0188
      9 C         141.6923  144.7219  159.1737 C.ar    1  UNL1        0.0812
     10 N         142.1744  144.1141  160.4575 N.ar    1  UNL1       -0.2453
     11 C         141.5397  142.7255  163.1558 C.3     1  UNL1        0.0523
     12 C         142.9771  142.3372  162.9739 C.ar    1  UNL1        0.0655
     13 C         143.7899  142.5239  161.7271 C.ar    1  UNL1        0.0522
     14 C         145.1692  141.9962  161.9895 C.ar    1  UNL1        0.1232
     15 N         145.2090  141.4833  163.3985 N.ar    1  UNL1       -0.1624
     16 N         143.8542  141.6941  164.0069 N.ar    1  UNL1       -0.2145
     17 C         143.4478  141.3263  165.4032 C.ar    1  UNL1        0.1847
     18 C         143.2833  142.3952  166.4426 C.ar    1  UNL1        0.0435
     19 C         142.8770  142.0275  167.8389 C.ar    1  UNL1        0.0393
     20 C         142.6351  140.5907  168.1957 C.ar    1  UNL1        0.1537
     21 N         142.7996  139.5218  167.1563 N.ar    1  UNL1       -0.1314
     22 N         143.2059  139.8896  165.7601 N.ar    1  UNL1       -0.1273
     23 N         142.2287  140.2230  169.5920 N.pl3   1  UNL1       -0.2883
     24 C         141.5473  141.2341  170.4657 C.3     1  UNL1        0.1137
     25 C         142.5038  138.8441  170.1145 C.3     1  UNL1        0.1137
     26 C         140.2462  146.5452  155.3222 C.3     1  UNL1        0.0437
     27 C         138.9819  147.3523  155.3027 C.3     1  UNL1        0.0768
     28 N         139.0462  148.8434  155.1533 N.3     1  UNL1       -0.2737
     29 C         139.5434  149.5883  153.9500 C.3     1  UNL1        0.0721
     30 C         139.4291  151.0568  154.2339 C.3     1  UNL1        0.0187
     31 C         138.8612  151.2194  155.6128 C.3     1  UNL1        0.0174
     32 C         138.6246  149.8514  156.1810 C.3     1  UNL1        0.0576
     33 C         138.0647  149.5454  157.5385 C.3     1  UNL1        0.0173
@<TRIPOS>BOND
     1    11    12    1
     2    12    13   ar
     3    13     1    1
     4     1     2   ar
     5     2     3   ar
     6     3     4   ar
     7     4     5   ar
     8     5     6   ar
     9     6    26    1
    10    26    27    1
    11    27    28    1
    12    28    29    1
    13    29    30    1
    14    30    31    1
    15    31    32    1
    16    32    33    1
    17     6     7   ar
    18     7     8   ar
    19     8     9   ar
    20     9    10   ar
    21    13    14   ar
    22    14    15   ar
    23    15    16   ar
    24    16    17    1
    25    17    18   ar
    26    18    19   ar
    27    19    20   ar
    28    20    23    1
    29    23    24    1
    30    23    25    1
    31    20    21   ar
    32    21    22   ar
    33    16    12   ar
    34    22    17   ar
    35    10     1   ar
    36     9     4   ar
    37    32    28    1
@<TRIPOS>MOLECULE
*****
 33 37 0 0 0
SMALL
GASTEIGER

@<TRIPOS>ATOM
      1 C         142.0137  138.3672  159.1346 C.ar    1  UNL1        0.0839
      2 C         140.6024  138.5004  158.6443 C.ar    1  UNL1        0.0192
      3 C         140.1946  137.8613  157.3500 C.ar    1  UNL1        0.0030
      4 C         141.1981  137.0890  156.5460 C.ar    1  UNL1        0.0174
      5 C         140.7903  136.4498  155.2517 C.ar    1  UNL1       -0.0027
      6 C         141.7939  135.6775  154.4477 C.ar    1  UNL1       -0.0207
      7 C         143.2053  135.5444  154.9380 C.ar    1  UNL1       -0.0027
      8 C         143.6130  136.1835  156.2323 C.ar    1  UNL1        0.0188
      9 C         142.6095  136.9558  157.0363 C.ar    1  UNL1        0.0812
     10 N         143.0172  137.5950  158.3305 N.ar    1  UNL1       -0.2453
     11 C         140.6834  137.7954  162.0591 C.3     1  UNL1        0.0523
     12 C         141.8100  138.7435  161.7732 C.ar    1  UNL1        0.0655
     13 C         142.4215  139.0064  160.4289 C.ar    1  UNL1        0.0522
     14 C         143.5124  140.0206  160.6062 C.ar    1  UNL1        0.1232
     15 N         143.5751  140.3845  162.0600 N.ar    1  UNL1       -0.1624
     16 N         142.5230  139.5952  162.7813 N.ar    1  UNL1       -0.2145
     17 C         142.2345  139.6484  164.2523 C.ar    1  UNL1        0.1847
     18 C         143.1643  138.9832  165.2234 C.ar    1  UNL1        0.0435
     19 C         142.8758  139.0363  166.6945 C.ar    1  UNL1        0.0393
     20 C         141.6575  139.7546  167.1943 C.ar    1  UNL1        0.1537
     21 N         140.7278  140.4198  166.2232 N.ar    1  UNL1       -0.1314
     22 N         141.0163  140.3667  164.7522 N.ar    1  UNL1       -0.1273
     23 N         141.3691  139.8078  168.6654 N.pl3   1  UNL1       -0.2883
     24 C         140.0495  140.3289  169.1526 C.3     1  UNL1        0.1137
     25 C         142.4001  139.3398  169.6492 C.3     1  UNL1        0.1137
     26 C         141.3861  135.0384  153.1534 C.3     1  UNL1        0.0437
     27 C         141.8818  133.6660  152.8057 C.3     1  UNL1        0.0768
     28 N         141.0837  132.4583  153.1988 N.3     1  UNL1       -0.2737
     29 C         140.1142  131.7194  152.3247 C.3     1  UNL1        0.0721
     30 C         139.5463  130.5819  153.1207 C.3     1  UNL1        0.0187
     31 C         140.1649  130.6179  154.4868 C.3     1  UNL1        0.0174
     32 C         141.1150  131.7776  154.5350 C.3     1  UNL1        0.0576
     33 C         141.9499  132.1849  155.7128 C.3     1  UNL1        0.0173
@<TRIPOS>BOND
     1    11    12    1
     2    12    13   ar
     3    13     1    1
     4     1     2   ar
     5     2     3   ar
     6     3     4   ar
     7     4     5   ar
     8     5     6   ar
     9     6    26    1
    10    26    27    1
    11    27    28    1
    12    28    29    1
    13    29    30    1
    14    30    31    1
    15    31    32    1
    16    32    33    1
    17     6     7   ar
    18     7     8   ar
    19     8     9   ar
    20     9    10   ar
    21    13    14   ar
    22    14    15   ar
    23    15    16   ar
    24    16    17    1
    25    17    18   ar
    26    18    19   ar
    27    19    20   ar
    28    20    23    1
    29    23    24    1
    30    23    25    1
    31    20    21   ar
    32    21    22   ar
    33    16    12   ar
    34    22    17   ar
    35    10     1   ar
    36     9     4   ar
    37    32    28    1
@<TRIPOS>MOLECULE
*****
 33 37 0 0 0
SMALL
GASTEIGER

@<TRIPOS>ATOM
      1 C         142.5023  138.1615  158.1235 C.ar    1  UNL1        0.0839
      2 C         143.0105  139.5165  157.7290 C.ar    1  UNL1        0.0192
      3 C         143.6617  140.4001  158.7512 C.ar    1  UNL1        0.0030
      4 C         143.8048  139.9288  160.1680 C.ar    1  UNL1        0.0174
      5 C         144.4561  140.8125  161.1903 C.ar    1  UNL1       -0.0027
      6 C         144.5992  140.3411  162.6071 C.ar    1  UNL1       -0.0207
      7 C         144.0910  138.9861  163.0017 C.ar    1  UNL1       -0.0027
      8 C         143.4397  138.1024  161.9794 C.ar    1  UNL1        0.0188
      9 C         143.2967  138.5738  160.5626 C.ar    1  UNL1        0.0812
     10 N         142.6454  137.6902  159.5404 N.ar    1  UNL1       -0.2453
     11 C         143.5897  135.2477  157.1350 C.3     1  UNL1        0.0523
     12 C         142.3509  135.9385  156.6469 C.ar    1  UNL1        0.0655
     13 C         141.8511  137.2778  157.1013 C.ar    1  UNL1        0.0522
     14 C         140.5857  137.5782  156.3539 C.ar    1  UNL1        0.1232
     15 N         140.3034  136.4246  155.4377 N.ar    1  UNL1       -0.1624
     16 N         141.3944  135.4111  155.6188 N.ar    1  UNL1       -0.2145
     17 C         141.5088  134.1005  154.8982 C.ar    1  UNL1        0.1847
     18 C         141.7711  134.0769  153.4215 C.ar    1  UNL1        0.0435
     19 C         141.8855  132.7663  152.7010 C.ar    1  UNL1        0.0393
     20 C         141.7376  131.4794  153.4571 C.ar    1  UNL1        0.1537
     21 N         141.4752  131.5030  154.9338 N.ar    1  UNL1       -0.1314
     22 N         141.3608  132.8136  155.6544 N.ar    1  UNL1       -0.1273
     23 N         141.8519  130.1688  152.7366 N.pl3   1  UNL1       -0.2883
     24 C         140.6231  129.3527  152.4645 C.3     1  UNL1        0.1137
     25 C         143.1952  129.6742  152.2881 C.3     1  UNL1        0.1137
     26 C         145.2504  141.2248  163.6294 C.3     1  UNL1        0.0437
     27 C         144.4147  141.9117  164.6685 C.3     1  UNL1        0.0768
     28 N         143.4960  143.0297  164.2733 N.3     1  UNL1       -0.2737
     29 C         143.8421  144.4890  164.2506 C.3     1  UNL1        0.0721
     30 C         142.6299  145.2458  163.7947 C.3     1  UNL1        0.0187
     31 C         141.5347  144.2542  163.5356 C.3     1  UNL1        0.0174
     32 C         142.0700  142.8845  163.8314 C.3     1  UNL1        0.0576
     33 C         141.3122  141.5960  163.7072 C.3     1  UNL1        0.0173
@<TRIPOS>BOND
     1    11    12    1
     2    12    13   ar
     3    13     1    1
     4     1     2   ar
     5     2     3   ar
     6     3     4   ar
     7     4     5   ar
     8     5     6   ar
     9     6    26    1
    10    26    27    1
    11    27    28    1
    12    28    29    1
    13    29    30    1
    14    30    31    1
    15    31    32    1
    16    32    33    1
    17     6     7   ar
    18     7     8   ar
    19     8     9   ar
    20     9    10   ar
    21    13    14   ar
    22    14    15   ar
    23    15    16   ar
    24    16    17    1
    25    17    18   ar
    26    18    19   ar
    27    19    20   ar
    28    20    23    1
    29    23    24    1
    30    23    25    1
    31    20    21   ar
    32    21    22   ar
    33    16    12   ar
    34    22    17   ar
    35    10     1   ar
    36     9     4   ar
    37    32    28    1
@<TRIPOS>MOLECULE
*****
 33 37 0 0 0
SMALL
GASTEIGER

@<TRIPOS>ATOM
      1 C         139.3003  143.1129  160.8232 C.ar    1  UNL1        0.0839
      2 C         138.7191  142.2431  159.7483 C.ar    1  UNL1        0.0192
      3 C         139.0585  142.5006  158.3100 C.ar    1  UNL1        0.0030
      4 C         139.9790  143.6278  157.9468 C.ar    1  UNL1        0.0174
      5 C         140.3184  143.8852  156.5085 C.ar    1  UNL1       -0.0027
      6 C         141.2390  145.0124  156.1453 C.ar    1  UNL1       -0.0207
      7 C         141.8202  145.8822  157.2204 C.ar    1  UNL1       -0.0027
      8 C         141.4808  145.6247  158.6586 C.ar    1  UNL1        0.0188
      9 C         140.5603  144.4975  159.0218 C.ar    1  UNL1        0.0812
     10 N         140.2209  144.2401  160.4600 N.ar    1  UNL1       -0.2453
     11 C         141.3545  142.0250  163.1137 C.3     1  UNL1        0.0523
     12 C         139.9052  142.3554  163.3144 C.ar    1  UNL1        0.0655
     13 C         138.9610  142.8554  162.2616 C.ar    1  UNL1        0.0522
     14 C         137.6178  143.0528  162.8995 C.ar    1  UNL1        0.1232
     15 N         137.7320  142.6748  164.3466 N.ar    1  UNL1       -0.1624
     16 N         139.1457  142.2437  164.6030 N.ar    1  UNL1       -0.2145
     17 C         139.7021  141.7821  165.9173 C.ar    1  UNL1        0.1847
     18 C         140.3923  142.7578  166.8238 C.ar    1  UNL1        0.0435
     19 C         140.9487  142.2961  168.1380 C.ar    1  UNL1        0.0393
     20 C         140.8149  140.8588  168.5457 C.ar    1  UNL1        0.1537
     21 N         140.1247  139.8832  167.6392 N.ar    1  UNL1       -0.1314
     22 N         139.5683  140.3448  166.3250 N.ar    1  UNL1       -0.1273
     23 N         141.3714  140.3972  169.8600 N.pl3   1  UNL1       -0.2883
     24 C         141.0741  141.1674  171.1124 C.3     1  UNL1        0.1137
     25 C         142.2251  139.1654  169.9218 C.3     1  UNL1        0.1137
     26 C         141.5783  145.2699  154.7071 C.3     1  UNL1        0.0437
     27 C         140.5558  145.8759  153.7920 C.3     1  UNL1        0.0768
     28 N         140.3781  147.3646  153.7470 N.3     1  UNL1       -0.2737
     29 C         140.9534  148.2905  152.7166 C.3     1  UNL1        0.0721
     30 C         140.5248  149.6870  153.0572 C.3     1  UNL1        0.0187
     31 C         139.6845  149.6242  154.2983 C.3     1  UNL1        0.0174
     32 C         139.5939  148.1889  154.7246 C.3     1  UNL1        0.0576
     33 C         138.8497  147.6692  155.9188 C.3     1  UNL1        0.0173
@<TRIPOS>BOND
     1    11    12    1
     2    12    13   ar
     3    13     1    1
     4     1     2   ar
     5     2     3   ar
     6     3     4   ar
     7     4     5   ar
     8     5     6   ar
     9     6    26    1
    10    26    27    1
    11    27    28    1
    12    28    29    1
    13    29    30    1
    14    30    31    1
    15    31    32    1
    16    32    33    1
    17     6     7   ar
    18     7     8   ar
    19     8     9   ar
    20     9    10   ar
    21    13    14   ar
    22    14    15   ar
    23    15    16   ar
    24    16    17    1
    25    17    18   ar
    26    18    19   ar
    27    19    20   ar
    28    20    23    1
    29    23    24    1
    30    23    25    1
    31    20    21   ar
    32    21    22   ar
    33    16    12   ar
    34    22    17   ar
    35    10     1   ar
    36     9     4   ar
    37    32    28    1
@<TRIPOS>MOLECULE
*****
 33 37 0 0 0
SMALL
GASTEIGER

@<TRIPOS>ATOM
      1 C         142.5115  141.4534  162.3975 C.ar    1  UNL1        0.0839
      2 C         142.6993  139.9939  162.6880 C.ar    1  UNL1        0.0192
      3 C         142.1504  139.4044  163.9533 C.ar    1  UNL1        0.0030
      4 C         141.4136  140.2744  164.9281 C.ar    1  UNL1        0.0174
      5 C         140.8646  139.6848  166.1935 C.ar    1  UNL1       -0.0027
      6 C         140.1278  140.5548  167.1683 C.ar    1  UNL1       -0.0207
      7 C         139.9400  142.0144  166.8777 C.ar    1  UNL1       -0.0027
      8 C         140.4889  142.6039  165.6124 C.ar    1  UNL1        0.0188
      9 C         141.2257  141.7339  164.6376 C.ar    1  UNL1        0.0812
     10 N         141.7747  142.3234  163.3723 N.ar    1  UNL1       -0.2453
     11 C         140.7593  142.7298  159.9581 C.3     1  UNL1        0.0523
     12 C         142.2550  142.6297  160.0109 C.ar    1  UNL1        0.0655
     13 C         143.0604  142.0430  161.1321 C.ar    1  UNL1        0.0522
     14 C         144.5111  142.1494  160.7658 C.ar    1  UNL1        0.1232
     15 N         144.6022  142.8019  159.4182 N.ar    1  UNL1       -0.1624
     16 N         143.2079  143.0987  158.9516 N.ar    1  UNL1       -0.2145
     17 C         142.8324  143.7501  157.6537 C.ar    1  UNL1        0.1847
     18 C         142.1743  145.0981  157.6539 C.ar    1  UNL1        0.0435
     19 C         141.7988  145.7495  156.3559 C.ar    1  UNL1        0.0393
     20 C         142.0813  145.0530  155.0579 C.ar    1  UNL1        0.1537
     21 N         142.7394  143.7050  155.0577 N.ar    1  UNL1       -0.1314
     22 N         143.1149  143.0536  156.3556 N.ar    1  UNL1       -0.1273
     23 N         141.7058  145.7044  153.7600 N.pl3   1  UNL1       -0.2883
     24 C         142.2976  145.2094  152.4735 C.3     1  UNL1        0.1137
     25 C         140.7386  146.8509  153.7485 C.3     1  UNL1        0.1137
     26 C         139.5789  139.9653  168.4336 C.3     1  UNL1        0.0437
     27 C         140.3889  140.0108  169.6954 C.3     1  UNL1        0.0768
     28 N         141.4789  141.0295  169.8505 N.3     1  UNL1       -0.2737
     29 C         142.9475  140.7839  169.6688 C.3     1  UNL1        0.0721
     30 C         143.6680  142.0752  169.9206 C.3     1  UNL1        0.0187
     31 C         142.6447  143.1189  170.2578 C.3     1  UNL1        0.0174
     32 C         141.2918  142.4725  170.2144 C.3     1  UNL1        0.0576
     33 C         139.9817  143.1503  170.4872 C.3     1  UNL1        0.0173
@<TRIPOS>BOND
     1    11    12    1
     2    12    13   ar
     3    13     1    1
     4     1     2   ar
     5     2     3   ar
     6     3     4   ar
     7     4     5   ar
     8     5     6   ar
     9     6    26    1
    10    26    27    1
    11    27    28    1
    12    28    29    1
    13    29    30    1
    14    30    31    1
    15    31    32    1
    16    32    33    1
    17     6     7   ar
    18     7     8   ar
    19     8     9   ar
    20     9    10   ar
    21    13    14   ar
    22    14    15   ar
    23    15    16   ar
    24    16    17    1
    25    17    18   ar
    26    18    19   ar
    27    19    20   ar
    28    20    23    1
    29    23    24    1
    30    23    25    1
    31    20    21   ar
    32    21    22   ar
    33    16    12   ar
    34    22    17   ar
    35    10     1   ar
    36     9     4   ar
    37    32    28    1
@<TRIPOS>MOLECULE
*****
 33 37 0 0 0
SMALL
GASTEIGER

@<TRIPOS>ATOM
      1 C         144.1056  142.4183  158.4539 C.ar    1  UNL1        0.0839
      2 C         144.2270  141.5760  159.6891 C.ar    1  UNL1        0.0192
      3 C         143.3994  141.8950  160.8987 C.ar    1  UNL1        0.0030
      4 C         142.4504  143.0564  160.8731 C.ar    1  UNL1        0.0174
      5 C         141.6227  143.3754  162.0828 C.ar    1  UNL1       -0.0027
      6 C         140.6737  144.5367  162.0573 C.ar    1  UNL1       -0.0207
      7 C         140.5523  145.3790  160.8220 C.ar    1  UNL1       -0.0027
      8 C         141.3799  145.0600  159.6124 C.ar    1  UNL1        0.0188
      9 C         142.3289  143.8987  159.6379 C.ar    1  UNL1        0.0812
     10 N         143.1565  143.5797  158.4283 N.ar    1  UNL1       -0.2453
     11 C         147.2169  143.2795  157.9769 C.3     1  UNL1        0.0523
     12 C         146.3633  142.4952  157.0249 C.ar    1  UNL1        0.0655
     13 C         144.9332  142.0993  157.2442 C.ar    1  UNL1        0.0522
     14 C         144.4760  141.3285  156.0413 C.ar    1  UNL1        0.1232
     15 N         145.6236  141.2479  155.0787 N.ar    1  UNL1       -0.1624
     16 N         146.7900  141.9690  155.6866 N.ar    1  UNL1       -0.2145
     17 C         148.1452  142.1348  155.0653 C.ar    1  UNL1        0.1847
     18 C         148.3040  142.9559  153.8201 C.ar    1  UNL1        0.0435
     19 C         149.6591  143.1216  153.1987 C.ar    1  UNL1        0.0393
     20 C         150.8555  142.4663  153.8227 C.ar    1  UNL1        0.1537
     21 N         150.6967  141.6452  155.0679 N.ar    1  UNL1       -0.1314
     22 N         149.3415  141.4795  155.6892 N.ar    1  UNL1       -0.1273
     23 N         152.2106  142.6321  153.2013 N.pl3   1  UNL1       -0.2883
     24 C         153.2939  141.6347  153.4873 C.3     1  UNL1        0.1137
     25 C         152.4825  143.7952  152.2940 C.3     1  UNL1        0.1137
     26 C         139.8461  144.8557  163.2669 C.3     1  UNL1        0.0437
     27 C         138.4581  144.3011  163.3936 C.3     1  UNL1        0.0768
     28 N         138.2432  142.8169  163.4212 N.3     1  UNL1       -0.2737
     29 C         138.1453  141.9628  164.6505 C.3     1  UNL1        0.0721
     30 C         137.9300  140.5442  164.2134 C.3     1  UNL1        0.0187
     31 C         137.8948  140.5215  162.7139 C.3     1  UNL1        0.0174
     32 C         138.0884  141.9261  162.2244 C.3     1  UNL1        0.0576
     33 C         138.1213  142.3630  160.7898 C.3     1  UNL1        0.0173
@<TRIPOS>BOND
     1    11    12    1
     2    12    13   ar
     3    13     1    1
     4     1     2   ar
     5     2     3   ar
     6     3     4   ar
     7     4     5   ar
     8     5     6   ar
     9     6    26    1
    10    26    27    1
    11    27    28    1
    12    28    29    1
    13    29    30    1
    14    30    31    1
    15    31    32    1
    16    32    33    1
    17     6     7   ar
    18     7     8   ar
    19     8     9   ar
    20     9    10   ar
    21    13    14   ar
    22    14    15   ar
    23    15    16   ar
    24    16    17    1
    25    17    18   ar
    26    18    19   ar
    27    19    20   ar
    28    20    23    1
    29    23    24    1
    30    23    25    1
    31    20    21   ar
    32    21    22   ar
    33    16    12   ar
    34    22    17   ar
    35    10     1   ar
    36     9     4   ar
    37    32    28    1
