@<TRIPOS>MOLECULE
*****
 39 41 0 0 0
SMALL
GASTEIGER

@<TRIPOS>ATOM
      1 C         139.3509  139.6527  160.7850 C.ar    1  UNL1        0.0597
      2 C         139.2504  138.7750  161.9972 C.ar    1  UNL1        0.0422
      3 C         138.5647  139.2781  163.2327 C.ar    1  UNL1        0.1485
      4 C         137.9793  140.6590  163.2560 C.ar    1  UNL1        0.0743
      5 C         138.0797  141.5367  162.0438 C.ar    1  UNL1        0.1416
      6 C         138.7655  141.0336  160.8083 C.ar    1  UNL1        0.0416
      7 N         141.5265  138.9753  159.5368 N.am    1  UNL1       -0.2644
      8 C         140.0367  139.1496  159.5494 C.2     1  UNL1        0.2508
      9 O         139.2327  138.8207  158.3266 O.2     1  UNL1       -0.2698
     10 H         142.0541  139.1912  160.3394 H       1  UNL1        0.1566
     11 N         143.1500  136.9915  156.6223 N.ar    1  UNL1       -0.2357
     12 C         143.3852  138.4046  156.1774 C.ar    1  UNL1        0.0988
     13 C         142.8056  139.3198  157.2151 C.ar    1  UNL1        0.0565
     14 C         142.2123  138.4722  158.3012 C.ar    1  UNL1        0.1557
     15 N         142.4251  137.0333  157.9348 N.ar    1  UNL1       -0.1534
     16 C         143.5666  135.7540  155.8842 C.3     1  UNL1        0.2423
     17 P         142.9116  134.4403  156.1929 P.3     1  UNL1        0.3677
     18 O         142.2566  133.1266  156.5014 O.2     1  UNL1       -0.2557
     19 O         143.9579  134.1624  157.2311 O.3     1  UNL1       -0.2928
     20 C         145.5826  132.2836  157.9928 C.3     1  UNL1        0.0352
     21 C         144.1890  132.7585  157.7060 C.3     1  UNL1        0.1515
     22 O         141.8652  134.7182  155.1545 O.3     1  UNL1       -0.2928
     23 C         142.2719  135.1511  153.7771 C.3     1  UNL1        0.1515
     24 C         141.7173  134.4460  152.5750 C.3     1  UNL1        0.0352
     25 O         138.4642  138.4004  164.4450 O.3     1  UNL1       -0.4518
     26 C         138.9017  138.9172  165.7835 C.ar    1  UNL1        0.1645
     27 C         140.2524  139.5511  165.9377 C.ar    1  UNL1        0.0420
     28 C         140.6899  140.0680  167.2762 C.ar    1  UNL1        0.0411
     29 C         139.7766  139.9509  168.4604 C.ar    1  UNL1        0.1865
     30 N         138.4260  139.3170  168.3061 N.ar    1  UNL1       -0.2225
     31 C         137.9885  138.8001  166.9676 C.ar    1  UNL1        0.1377
     32 S         140.2141  140.4677  169.7989 S.O2    1  UNL1        0.0268
     33 C         140.6516  140.9845  171.1373 C.3     1  UNL1        0.1834
     34 O         141.6418  140.1725  169.4462 O.2     1  UNL1       -0.1671
     35 O         138.7863  140.7628  170.1515 O.2     1  UNL1       -0.1671
     36 O         137.4944  142.9176  162.0671 O.3     1  UNL1       -0.4791
     37 C         138.1032  143.9757  162.9388 C.3     1  UNL1        0.1661
     38 C         139.1277  144.9146  162.3741 C.3     1  UNL1        0.0472
     39 C         137.6876  144.0949  164.3751 C.3     1  UNL1        0.0472
@<TRIPOS>BOND
     1    20    21    1
     2    21    19    1
     3    19    17    1
     4    17    18    2
     5    17    16    1
     6    16    11    1
     7    11    12   ar
     8    12    13   ar
     9    13    14   ar
    10    14     7    1
    11     7     8   am
    12     8     9    2
    13     8     1    1
    14     1     2   ar
    15     2     3   ar
    16     3    25    1
    17    25    26    1
    18    26    27   ar
    19    27    28   ar
    20    28    29   ar
    21    29    32    1
    22    32    33    1
    23    32    34    2
    24    32    35    2
    25    29    30   ar
    26    30    31   ar
    27     3     4   ar
    28     4     5   ar
    29     5    36    1
    30    36    37    1
    31    37    38    1
    32    37    39    1
    33     5     6   ar
    34    14    15   ar
    35    17    22    1
    36    22    23    1
    37    23    24    1
    38    15    11   ar
    39     6     1   ar
    40    31    26   ar
    41     7    10    1
@<TRIPOS>MOLECULE
*****
 39 41 0 0 0
SMALL
GASTEIGER

@<TRIPOS>ATOM
      1 C         139.3586  139.4826  160.7558 C.ar    1  UNL1        0.0597
      2 C         139.2488  138.6315  161.9860 C.ar    1  UNL1        0.0422
      3 C         138.5827  139.1733  163.2159 C.ar    1  UNL1        0.1485
      4 C         138.0263  140.5664  163.2155 C.ar    1  UNL1        0.0743
      5 C         138.1362  141.4175  161.9854 C.ar    1  UNL1        0.1416
      6 C         138.8023  140.8757  160.7555 C.ar    1  UNL1        0.0416
      7 N         141.4941  138.6392  159.5399 N.am    1  UNL1       -0.2644
      8 C         140.0248  138.9408  159.5259 C.2     1  UNL1        0.2508
      9 O         139.2216  138.7006  158.2820 O.2     1  UNL1       -0.2698
     10 H         142.0212  138.7969  160.3563 H       1  UNL1        0.1566
     11 N         143.2261  136.5866  156.7375 N.ar    1  UNL1       -0.2357
     12 C         143.1446  137.9406  156.0970 C.ar    1  UNL1        0.0988
     13 C         142.4859  138.8743  157.0688 C.ar    1  UNL1        0.0565
     14 C         142.1602  138.0973  158.3099 C.ar    1  UNL1        0.1557
     15 N         142.6177  136.6836  158.1052 N.ar    1  UNL1       -0.1534
     16 C         143.8128  135.3526  156.1191 C.3     1  UNL1        0.2423
     17 P         142.9278  134.1898  155.7803 P.3     1  UNL1        0.3677
     18 O         142.0427  133.0271  155.4415 O.2     1  UNL1       -0.2557
     19 O         142.7324  134.7409  154.3989 O.3     1  UNL1       -0.2928
     20 C         140.5725  136.1355  154.0248 C.3     1  UNL1        0.0352
     21 C         141.3500  134.8676  153.8306 C.3     1  UNL1        0.1515
     22 O         143.1231  133.6387  157.1617 O.3     1  UNL1       -0.2928
     23 C         144.4707  133.1327  157.5836 C.3     1  UNL1        0.1515
     24 C         144.7459  131.6583  157.6030 C.3     1  UNL1        0.0352
     25 O         138.4728  138.3222  164.4462 O.3     1  UNL1       -0.4518
     26 C         138.9224  138.8595  165.7725 C.ar    1  UNL1        0.1645
     27 C         140.2775  139.4888  165.9065 C.ar    1  UNL1        0.0420
     28 C         140.7270  140.0261  167.2328 C.ar    1  UNL1        0.0411
     29 C         139.8215  139.9342  168.4252 C.ar    1  UNL1        0.1865
     30 N         138.4665  139.3050  168.2912 N.ar    1  UNL1       -0.2225
     31 C         138.0169  138.7677  166.9648 C.ar    1  UNL1        0.1377
     32 S         140.2711  140.4716  169.7515 S.O2    1  UNL1        0.0268
     33 C         140.7206  141.0089  171.0778 C.3     1  UNL1        0.1834
     34 O         141.4871  141.0610  169.1005 O.2     1  UNL1       -0.1671
     35 O         139.0550  139.8821  170.4025 O.2     1  UNL1       -0.1671
     36 O         137.5799  142.8105  161.9850 O.3     1  UNL1       -0.4791
     37 C         138.1856  143.8603  162.8687 C.3     1  UNL1        0.1661
     38 C         137.7215  144.0052  164.2878 C.3     1  UNL1        0.0472
     39 C         139.2556  144.7652  162.3335 C.3     1  UNL1        0.0472
@<TRIPOS>BOND
     1    20    21    1
     2    21    19    1
     3    19    17    1
     4    17    18    2
     5    17    16    1
     6    16    11    1
     7    11    12   ar
     8    12    13   ar
     9    13    14   ar
    10    14     7    1
    11     7     8   am
    12     8     9    2
    13     8     1    1
    14     1     2   ar
    15     2     3   ar
    16     3    25    1
    17    25    26    1
    18    26    27   ar
    19    27    28   ar
    20    28    29   ar
    21    29    32    1
    22    32    33    1
    23    32    34    2
    24    32    35    2
    25    29    30   ar
    26    30    31   ar
    27     3     4   ar
    28     4     5   ar
    29     5    36    1
    30    36    37    1
    31    37    38    1
    32    37    39    1
    33     5     6   ar
    34    14    15   ar
    35    17    22    1
    36    22    23    1
    37    23    24    1
    38    15    11   ar
    39     6     1   ar
    40    31    26   ar
    41     7    10    1
@<TRIPOS>MOLECULE
*****
 39 41 0 0 0
SMALL
GASTEIGER

@<TRIPOS>ATOM
      1 C         142.2743  139.8787  161.4020 C.ar    1  UNL1        0.0597
      2 C         142.7166  139.5289  162.7919 C.ar    1  UNL1        0.0422
      3 C         142.1164  140.2366  163.9704 C.ar    1  UNL1        0.1485
      4 C         141.0738  141.2941  163.7589 C.ar    1  UNL1        0.0743
      5 C         140.6315  141.6440  162.3690 C.ar    1  UNL1        0.1416
      6 C         141.2317  140.9363  161.1906 C.ar    1  UNL1        0.0416
      7 N         142.0440  138.9117  159.0016 N.am    1  UNL1       -0.2644
      8 C         142.8745  139.1710  160.2235 C.2     1  UNL1        0.2508
      9 O         144.3053  138.7226  160.2668 O.2     1  UNL1       -0.2698
     10 H         141.1050  139.2061  158.9731 H       1  UNL1        0.1566
     11 N         143.4111  136.4538  156.3267 N.ar    1  UNL1       -0.2357
     12 C         143.7248  137.7763  155.6922 C.ar    1  UNL1        0.0988
     13 C         143.2508  138.8581  156.6171 C.ar    1  UNL1        0.0565
     14 C         142.6443  138.2040  157.8230 C.ar    1  UNL1        0.1557
     15 N         142.7433  136.7181  157.6435 N.ar    1  UNL1       -0.1534
     16 C         143.7122  135.1039  155.7461 C.3     1  UNL1        0.2423
     17 P         143.0429  133.8820  156.3020 P.3     1  UNL1        0.3677
     18 O         142.3737  132.6601  156.8579 O.2     1  UNL1       -0.2557
     19 O         141.9422  134.0259  155.2933 O.3     1  UNL1       -0.2928
     20 C         142.4066  132.4427  153.2864 C.3     1  UNL1        0.0352
     21 C         142.2309  133.8277  153.8347 C.3     1  UNL1        0.1515
     22 O         144.1437  133.7381  157.3108 O.3     1  UNL1       -0.2928
     23 C         144.7457  132.3902  157.5769 C.3     1  UNL1        0.1515
     24 C         145.2260  131.5446  156.4349 C.3     1  UNL1        0.0352
     25 O         142.5587  139.8868  165.3604 O.3     1  UNL1       -0.4518
     26 C         141.9160  140.5516  166.5415 C.ar    1  UNL1        0.1645
     27 C         142.5557  141.7575  167.1633 C.ar    1  UNL1        0.0420
     28 C         141.9131  142.4223  168.3445 C.ar    1  UNL1        0.0411
     29 C         140.6307  141.8811  168.9038 C.ar    1  UNL1        0.1865
     30 N         139.9911  140.6753  168.2820 N.ar    1  UNL1       -0.2225
     31 C         140.6337  140.0105  167.1009 C.ar    1  UNL1        0.1377
     32 S         139.9881  142.5459  170.0849 S.O2    1  UNL1        0.0268
     33 C         139.3454  143.2107  171.2661 C.3     1  UNL1        0.1834
     34 O         140.0812  143.8717  169.3894 O.2     1  UNL1       -0.1671
     35 O         139.8950  141.2202  170.7805 O.2     1  UNL1       -0.1671
     36 O         139.5890  142.7015  162.1576 O.3     1  UNL1       -0.4791
     37 C         138.3063  142.6560  162.9338 C.3     1  UNL1        0.1661
     38 C         137.8430  143.8668  163.6884 C.3     1  UNL1        0.0472
     39 C         137.4869  141.3998  162.9556 C.3     1  UNL1        0.0472
@<TRIPOS>BOND
     1    20    21    1
     2    21    19    1
     3    19    17    1
     4    17    18    2
     5    17    16    1
     6    16    11    1
     7    11    12   ar
     8    12    13   ar
     9    13    14   ar
    10    14     7    1
    11     7     8   am
    12     8     9    2
    13     8     1    1
    14     1     2   ar
    15     2     3   ar
    16     3    25    1
    17    25    26    1
    18    26    27   ar
    19    27    28   ar
    20    28    29   ar
    21    29    32    1
    22    32    33    1
    23    32    34    2
    24    32    35    2
    25    29    30   ar
    26    30    31   ar
    27     3     4   ar
    28     4     5   ar
    29     5    36    1
    30    36    37    1
    31    37    38    1
    32    37    39    1
    33     5     6   ar
    34    14    15   ar
    35    17    22    1
    36    22    23    1
    37    23    24    1
    38    15    11   ar
    39     6     1   ar
    40    31    26   ar
    41     7    10    1
@<TRIPOS>MOLECULE
*****
 39 41 0 0 0
SMALL
GASTEIGER

@<TRIPOS>ATOM
      1 C         141.7128  140.0893  160.2519 C.ar    1  UNL1        0.0597
      2 C         140.6443  139.6373  161.2027 C.ar    1  UNL1        0.0422
      3 C         140.0346  140.6133  162.1647 C.ar    1  UNL1        0.1485
      4 C         140.4934  142.0414  162.1759 C.ar    1  UNL1        0.0743
      5 C         141.5618  142.4934  161.2251 C.ar    1  UNL1        0.1416
      6 C         142.1715  141.5174  160.2631 C.ar    1  UNL1        0.0416
      7 N         141.7786  138.9935  157.8971 N.am    1  UNL1       -0.2644
      8 C         142.3225  139.1132  159.2898 C.2     1  UNL1        0.2508
      9 O         143.4762  138.2567  159.7206 O.2     1  UNL1       -0.2698
     10 H         141.0214  139.5557  157.6144 H       1  UNL1        0.1566
     11 N         142.8184  136.0013  155.6541 N.ar    1  UNL1       -0.2357
     12 C         143.8350  137.0296  155.2551 C.ar    1  UNL1        0.0988
     13 C         143.5692  138.2757  156.0468 C.ar    1  UNL1        0.0565
     14 C         142.3884  138.0174  156.9350 C.ar    1  UNL1        0.1557
     15 N         141.9244  136.6118  156.6923 N.ar    1  UNL1       -0.1534
     16 C         142.7142  134.6073  155.1103 C.3     1  UNL1        0.2423
     17 P         142.6109  133.4418  156.0489 P.3     1  UNL1        0.3677
     18 O         142.5076  132.2763  156.9875 O.2     1  UNL1       -0.2557
     19 O         141.2845  133.0774  155.4506 O.3     1  UNL1       -0.2928
     20 C         140.0610  130.9379  154.6288 C.3     1  UNL1        0.0352
     21 C         141.1835  131.9241  154.4968 C.3     1  UNL1        0.1515
     22 O         143.9373  133.8062  156.6472 O.3     1  UNL1       -0.2928
     23 C         144.3445  133.2345  157.9729 C.3     1  UNL1        0.1515
     24 C         145.5666  132.3706  158.0735 C.3     1  UNL1        0.0352
     25 O         138.9661  140.1614  163.1156 O.3     1  UNL1       -0.4518
     26 C         139.2327  140.1475  164.5917 C.ar    1  UNL1        0.1645
     27 C         138.3665  139.3290  165.5026 C.ar    1  UNL1        0.0420
     28 C         138.6330  139.3152  166.9786 C.ar    1  UNL1        0.0411
     29 C         139.7658  140.1199  167.5438 C.ar    1  UNL1        0.1865
     30 N         140.6320  140.9383  166.6329 N.ar    1  UNL1       -0.2225
     31 C         140.3654  140.9522  165.1568 C.ar    1  UNL1        0.1377
     32 S         140.0324  140.1060  169.0198 S.O2    1  UNL1        0.0268
     33 C         140.2989  140.0922  170.4959 C.3     1  UNL1        0.1834
     34 O         141.4616  140.4835  168.7653 O.2     1  UNL1       -0.1671
     35 O         138.6031  139.7286  169.2744 O.2     1  UNL1       -0.1671
     36 O         142.0205  143.9215  161.2362 O.3     1  UNL1       -0.4791
     37 C         142.6922  144.4840  162.4538 C.3     1  UNL1        0.1661
     38 C         141.9048  145.3017  163.4344 C.3     1  UNL1        0.0472
     39 C         144.1512  144.2288  162.6908 C.3     1  UNL1        0.0472
@<TRIPOS>BOND
     1    20    21    1
     2    21    19    1
     3    19    17    1
     4    17    18    2
     5    17    16    1
     6    16    11    1
     7    11    12   ar
     8    12    13   ar
     9    13    14   ar
    10    14     7    1
    11     7     8   am
    12     8     9    2
    13     8     1    1
    14     1     2   ar
    15     2     3   ar
    16     3    25    1
    17    25    26    1
    18    26    27   ar
    19    27    28   ar
    20    28    29   ar
    21    29    32    1
    22    32    33    1
    23    32    34    2
    24    32    35    2
    25    29    30   ar
    26    30    31   ar
    27     3     4   ar
    28     4     5   ar
    29     5    36    1
    30    36    37    1
    31    37    38    1
    32    37    39    1
    33     5     6   ar
    34    14    15   ar
    35    17    22    1
    36    22    23    1
    37    23    24    1
    38    15    11   ar
    39     6     1   ar
    40    31    26   ar
    41     7    10    1
@<TRIPOS>MOLECULE
*****
 39 41 0 0 0
SMALL
GASTEIGER

@<TRIPOS>ATOM
      1 C         139.2452  139.3400  160.8486 C.ar    1  UNL1        0.0597
      2 C         138.3543  139.6734  162.0084 C.ar    1  UNL1        0.0422
      3 C         138.7928  139.3543  163.4069 C.ar    1  UNL1        0.1485
      4 C         140.1223  138.7019  163.6456 C.ar    1  UNL1        0.0743
      5 C         141.0131  138.3686  162.4859 C.ar    1  UNL1        0.1416
      6 C         140.5746  138.6876  161.0874 C.ar    1  UNL1        0.0416
      7 N         138.0338  140.9146  159.1744 N.am    1  UNL1       -0.2644
      8 C         138.8067  139.6590  159.4500 C.2     1  UNL1        0.2508
      9 O         139.1411  138.7223  158.3272 O.2     1  UNL1       -0.2698
     10 H         137.8143  141.5294  159.9113 H       1  UNL1        0.1566
     11 N         136.6815  141.0189  155.5376 N.ar    1  UNL1       -0.2357
     12 C         137.1596  142.4303  155.7096 C.ar    1  UNL1        0.0988
     13 C         137.7243  142.5630  157.0930 C.ar    1  UNL1        0.0565
     14 C         137.5953  141.2336  157.7758 C.ar    1  UNL1        0.1557
     15 N         136.9508  140.2794  156.8145 N.ar    1  UNL1       -0.1534
     16 C         136.0458  140.4475  154.3051 C.3     1  UNL1        0.2423
     17 P         134.7350  140.9894  153.8171 P.3     1  UNL1        0.3677
     18 O         133.4241  141.5312  153.3292 O.2     1  UNL1       -0.2557
     19 O         135.3281  141.1982  152.4553 O.3     1  UNL1       -0.2928
     20 C         135.9470  143.7200  152.3690 C.3     1  UNL1        0.0352
     21 C         136.3446  142.2796  152.2378 C.3     1  UNL1        0.1515
     22 O         134.1418  140.7805  155.1790 O.3     1  UNL1       -0.2928
     23 C         132.7685  141.2997  155.4865 C.3     1  UNL1        0.1515
     24 C         131.8339  140.4910  156.3366 C.3     1  UNL1        0.0352
     25 O         137.9019  139.6877  164.5668 O.3     1  UNL1       -0.4518
     26 C         138.4969  139.9480  165.9189 C.ar    1  UNL1        0.1645
     27 C         139.4753  141.0698  166.1044 C.ar    1  UNL1        0.0420
     28 C         140.0703  141.3302  167.4565 C.ar    1  UNL1        0.0411
     29 C         139.6868  140.4687  168.6231 C.ar    1  UNL1        0.1865
     30 N         138.7085  139.3470  168.4376 N.ar    1  UNL1       -0.2225
     31 C         138.1135  139.0866  167.0855 C.ar    1  UNL1        0.1377
     32 S         140.2818  140.7290  169.9753 S.O2    1  UNL1        0.0268
     33 C         140.8768  140.9893  171.3274 C.3     1  UNL1        0.1834
     34 O         139.2849  139.7944  170.5939 O.2     1  UNL1       -0.1671
     35 O         141.2787  141.6637  169.3567 O.2     1  UNL1       -0.1671
     36 O         142.3426  137.7162  162.7246 O.3     1  UNL1       -0.4791
     37 C         143.6088  138.4619  162.4237 C.3     1  UNL1        0.1661
     38 C         144.1556  138.4783  161.0270 C.3     1  UNL1        0.0472
     39 C         144.3282  139.1911  163.5195 C.3     1  UNL1        0.0472
@<TRIPOS>BOND
     1    20    21    1
     2    21    19    1
     3    19    17    1
     4    17    18    2
     5    17    16    1
     6    16    11    1
     7    11    12   ar
     8    12    13   ar
     9    13    14   ar
    10    14     7    1
    11     7     8   am
    12     8     9    2
    13     8     1    1
    14     1     2   ar
    15     2     3   ar
    16     3    25    1
    17    25    26    1
    18    26    27   ar
    19    27    28   ar
    20    28    29   ar
    21    29    32    1
    22    32    33    1
    23    32    34    2
    24    32    35    2
    25    29    30   ar
    26    30    31   ar
    27     3     4   ar
    28     4     5   ar
    29     5    36    1
    30    36    37    1
    31    37    38    1
    32    37    39    1
    33     5     6   ar
    34    14    15   ar
    35    17    22    1
    36    22    23    1
    37    23    24    1
    38    15    11   ar
    39     6     1   ar
    40    31    26   ar
    41     7    10    1
@<TRIPOS>MOLECULE
*****
 39 41 0 0 0
SMALL
GASTEIGER

@<TRIPOS>ATOM
      1 C         143.6853  139.9932  157.9001 C.ar    1  UNL1        0.0597
      2 C         143.2372  139.0347  156.8369 C.ar    1  UNL1        0.0422
      3 C         143.7094  139.2078  155.4238 C.ar    1  UNL1        0.1485
      4 C         144.6297  140.3394  155.0738 C.ar    1  UNL1        0.0743
      5 C         145.0778  141.2980  156.1370 C.ar    1  UNL1        0.1416
      6 C         144.6056  141.1248  157.5501 C.ar    1  UNL1        0.0416
      7 N         143.9148  138.8587  160.2261 N.am    1  UNL1       -0.2644
      8 C         143.2131  139.8201  159.3133 C.2     1  UNL1        0.2508
      9 O         142.0392  140.6085  159.8137 O.2     1  UNL1       -0.2698
     10 H         144.6853  138.3412  159.8977 H       1  UNL1        0.1566
     11 N         142.1204  138.0356  163.5680 N.ar    1  UNL1       -0.2357
     12 C         143.3118  138.8029  164.0600 C.ar    1  UNL1        0.0988
     13 C         144.1290  139.2046  162.8680 C.ar    1  UNL1        0.0565
     14 C         143.4426  138.6856  161.6393 C.ar    1  UNL1        0.1557
     15 N         142.2014  137.9631  162.0720 N.ar    1  UNL1       -0.1534
     16 C         141.0383  137.4446  164.4221 C.3     1  UNL1        0.2423
     17 P         139.7332  138.1659  164.5850 P.3     1  UNL1        0.3677
     18 O         138.4281  138.8872  164.7478 O.2     1  UNL1       -0.2557
     19 O         140.3125  138.9579  165.7195 O.3     1  UNL1       -0.2928
     20 C         139.3787  139.8233  167.9842 C.3     1  UNL1        0.0352
     21 C         139.4459  139.9108  166.4883 C.3     1  UNL1        0.1515
     22 O         139.1539  137.3738  163.4504 O.3     1  UNL1       -0.2928
     23 C         138.3209  138.0574  162.4069 C.3     1  UNL1        0.1515
     24 C         138.9825  138.8619  161.3276 C.3     1  UNL1        0.0352
     25 O         143.2613  138.2493  154.3605 O.3     1  UNL1       -0.4518
     26 C         143.1046  136.7925  154.6818 C.ar    1  UNL1        0.1645
     27 C         141.9420  136.0232  154.1279 C.ar    1  UNL1        0.0420
     28 C         141.7853  134.5664  154.4492 C.ar    1  UNL1        0.0411
     29 C         142.7912  133.8789  155.3243 C.ar    1  UNL1        0.1865
     30 N         143.9537  134.6482  155.8781 N.ar    1  UNL1       -0.2225
     31 C         144.1104  136.1050  155.5568 C.ar    1  UNL1        0.1377
     32 S         142.6345  132.4221  155.6456 S.O2    1  UNL1        0.0268
     33 C         142.4778  130.9653  155.9668 C.3     1  UNL1        0.1834
     34 O         144.1200  132.2401  155.5449 O.2     1  UNL1       -0.1671
     35 O         141.1490  132.6041  155.7462 O.2     1  UNL1       -0.1671
     36 O         145.9981  142.4296  155.7870 O.3     1  UNL1       -0.4791
     37 C         147.3743  142.4881  156.3808 C.3     1  UNL1        0.1661
     38 C         147.5924  143.1607  157.7037 C.3     1  UNL1        0.0472
     39 C         148.5325  141.8741  155.6516 C.3     1  UNL1        0.0472
@<TRIPOS>BOND
     1    20    21    1
     2    21    19    1
     3    19    17    1
     4    17    18    2
     5    17    16    1
     6    16    11    1
     7    11    12   ar
     8    12    13   ar
     9    13    14   ar
    10    14     7    1
    11     7     8   am
    12     8     9    2
    13     8     1    1
    14     1     2   ar
    15     2     3   ar
    16     3    25    1
    17    25    26    1
    18    26    27   ar
    19    27    28   ar
    20    28    29   ar
    21    29    32    1
    22    32    33    1
    23    32    34    2
    24    32    35    2
    25    29    30   ar
    26    30    31   ar
    27     3     4   ar
    28     4     5   ar
    29     5    36    1
    30    36    37    1
    31    37    38    1
    32    37    39    1
    33     5     6   ar
    34    14    15   ar
    35    17    22    1
    36    22    23    1
    37    23    24    1
    38    15    11   ar
    39     6     1   ar
    40    31    26   ar
    41     7    10    1
@<TRIPOS>MOLECULE
*****
 39 41 0 0 0
SMALL
GASTEIGER

@<TRIPOS>ATOM
      1 C         141.1096  145.4056  158.2630 C.ar    1  UNL1        0.0597
      2 C         139.9608  146.1974  157.7125 C.ar    1  UNL1        0.0422
      3 C         139.9028  146.5158  156.2479 C.ar    1  UNL1        0.1485
      4 C         140.9938  146.0423  155.3337 C.ar    1  UNL1        0.0743
      5 C         142.1426  145.2505  155.8842 C.ar    1  UNL1        0.1416
      6 C         142.2006  144.9321  157.3488 C.ar    1  UNL1        0.0416
      7 N         142.3772  144.4101  160.3007 N.am    1  UNL1       -0.2644
      8 C         141.1676  145.0872  159.7277 C.2     1  UNL1        0.2508
      9 O         140.0160  145.4458  160.6194 O.2     1  UNL1       -0.2698
     10 H         143.1331  144.1747  159.7155 H       1  UNL1        0.1566
     11 N         142.0953  142.9975  163.9050 N.ar    1  UNL1       -0.2357
     12 C         142.9537  144.2061  164.1338 C.ar    1  UNL1        0.0988
     13 C         143.1638  144.8824  162.8114 C.ar    1  UNL1        0.0565
     14 C         142.4352  144.0917  161.7655 C.ar    1  UNL1        0.1557
     15 N         141.7748  142.9268  162.4413 N.ar    1  UNL1       -0.1534
     16 C         141.6376  142.0295  164.9554 C.3     1  UNL1        0.2423
     17 P         140.9776  142.5344  166.2042 P.3     1  UNL1        0.3677
     18 O         140.3177  143.0393  167.4530 O.2     1  UNL1       -0.2557
     19 O         139.6911  142.7101  165.4533 O.3     1  UNL1       -0.2928
     20 C         139.1219  144.8541  164.1009 C.3     1  UNL1        0.0352
     21 C         139.0483  144.0630  165.3731 C.3     1  UNL1        0.1515
     22 O         142.2643  142.3587  166.9551 O.3     1  UNL1       -0.2928
     23 C         142.2404  142.0747  168.4278 C.3     1  UNL1        0.1515
     24 C         143.5020  142.1792  169.2324 C.3     1  UNL1        0.0352
     25 O         138.7539  147.3077  155.6974 O.3     1  UNL1       -0.4518
     26 C         138.9633  148.7264  155.2577 C.ar    1  UNL1        0.1645
     27 C         139.7314  149.0170  154.0025 C.ar    1  UNL1        0.0420
     28 C         139.9407  150.4358  153.5628 C.ar    1  UNL1        0.0411
     29 C         139.3820  151.5639  154.3784 C.ar    1  UNL1        0.1865
     30 N         138.6139  151.2733  155.6336 N.ar    1  UNL1       -0.2225
     31 C         138.4045  149.8545  156.0732 C.ar    1  UNL1        0.1377
     32 S         139.5913  152.9827  153.9388 S.O2    1  UNL1        0.0268
     33 C         139.8006  154.4015  153.4991 C.3     1  UNL1        0.1834
     34 O         138.1482  153.0719  153.5395 O.2     1  UNL1       -0.1671
     35 O         141.0344  152.8935  154.3380 O.2     1  UNL1       -0.1671
     36 O         143.2336  144.7771  154.9700 O.3     1  UNL1       -0.4791
     37 C         142.9973  144.7140  153.4901 C.3     1  UNL1        0.1661
     38 C         142.2572  143.5516  152.8976 C.3     1  UNL1        0.0472
     39 C         143.5012  145.8134  152.6026 C.3     1  UNL1        0.0472
@<TRIPOS>BOND
     1    20    21    1
     2    21    19    1
     3    19    17    1
     4    17    18    2
     5    17    16    1
     6    16    11    1
     7    11    12   ar
     8    12    13   ar
     9    13    14   ar
    10    14     7    1
    11     7     8   am
    12     8     9    2
    13     8     1    1
    14     1     2   ar
    15     2     3   ar
    16     3    25    1
    17    25    26    1
    18    26    27   ar
    19    27    28   ar
    20    28    29   ar
    21    29    32    1
    22    32    33    1
    23    32    34    2
    24    32    35    2
    25    29    30   ar
    26    30    31   ar
    27     3     4   ar
    28     4     5   ar
    29     5    36    1
    30    36    37    1
    31    37    38    1
    32    37    39    1
    33     5     6   ar
    34    14    15   ar
    35    17    22    1
    36    22    23    1
    37    23    24    1
    38    15    11   ar
    39     6     1   ar
    40    31    26   ar
    41     7    10    1
@<TRIPOS>MOLECULE
*****
 39 41 0 0 0
SMALL
GASTEIGER

@<TRIPOS>ATOM
      1 C         143.1436  139.4324  160.4515 C.ar    1  UNL1        0.0597
      2 C         144.0083  139.5731  161.6690 C.ar    1  UNL1        0.0422
      3 C         143.5788  138.9602  162.9689 C.ar    1  UNL1        0.1485
      4 C         142.2845  138.2066  163.0513 C.ar    1  UNL1        0.0743
      5 C         141.4198  138.0658  161.8338 C.ar    1  UNL1        0.1416
      6 C         141.8493  138.6787  160.5339 C.ar    1  UNL1        0.0416
      7 N         143.6140  139.2105  157.9060 N.am    1  UNL1       -0.2644
      8 C         143.5732  140.0453  159.1515 C.2     1  UNL1        0.2508
      9 O         143.9619  141.4931  159.0972 O.2     1  UNL1       -0.2698
     10 H         143.3588  138.2603  157.9417 H       1  UNL1        0.1566
     11 N         145.4067  140.8211  154.8633 N.ar    1  UNL1       -0.2357
     12 C         144.0022  140.7122  154.3479 C.ar    1  UNL1        0.0988
     13 C         143.1597  140.0955  155.4250 C.ar    1  UNL1        0.0565
     14 C         144.0435  139.8235  156.6060 C.ar    1  UNL1        0.1557
     15 N         145.4322  140.2719  156.2589 N.ar    1  UNL1       -0.1534
     16 C         146.5796  141.3810  154.1146 C.3     1  UNL1        0.2423
     17 P         146.9874  142.8100  154.3193 P.3     1  UNL1        0.3677
     18 O         147.3950  144.2389  154.5238 O.2     1  UNL1       -0.2557
     19 O         147.8312  142.4016  155.4902 O.3     1  UNL1       -0.2928
     20 C         150.2606  142.0062  154.6588 C.3     1  UNL1        0.0352
     21 C         149.0021  141.4862  155.2879 C.3     1  UNL1        0.1515
     22 O         146.1435  143.2183  153.1482 O.3     1  UNL1       -0.2928
     23 C         145.3099  144.4632  153.2223 C.3     1  UNL1        0.1515
     24 C         143.8549  144.3717  153.5752 C.3     1  UNL1        0.0352
     25 O         144.4435  139.1010  164.1865 O.3     1  UNL1       -0.4518
     26 C         143.8260  139.4465  165.5091 C.ar    1  UNL1        0.1645
     27 C         143.2954  140.8285  165.7509 C.ar    1  UNL1        0.0420
     28 C         142.6778  141.1740  167.0735 C.ar    1  UNL1        0.0411
     29 C         142.5909  140.1374  168.1543 C.ar    1  UNL1        0.1865
     30 N         143.1215  138.7555  167.9125 N.ar    1  UNL1       -0.2225
     31 C         143.7390  138.4100  166.5899 C.ar    1  UNL1        0.1377
     32 S         141.9733  140.4829  169.4769 S.O2    1  UNL1        0.0268
     33 C         141.3558  140.8284  170.7995 C.3     1  UNL1        0.1834
     34 O         142.0162  139.0372  169.8746 O.2     1  UNL1       -0.1671
     35 O         141.9304  141.9286  169.0792 O.2     1  UNL1       -0.1671
     36 O         140.1255  137.3121  161.9162 O.3     1  UNL1       -0.4791
     37 C         138.9360  137.9352  162.5846 C.3     1  UNL1        0.1661
     38 C         138.8499  137.9702  164.0817 C.3     1  UNL1        0.0472
     39 C         137.8325  138.5233  161.7559 C.3     1  UNL1        0.0472
@<TRIPOS>BOND
     1    20    21    1
     2    21    19    1
     3    19    17    1
     4    17    18    2
     5    17    16    1
     6    16    11    1
     7    11    12   ar
     8    12    13   ar
     9    13    14   ar
    10    14     7    1
    11     7     8   am
    12     8     9    2
    13     8     1    1
    14     1     2   ar
    15     2     3   ar
    16     3    25    1
    17    25    26    1
    18    26    27   ar
    19    27    28   ar
    20    28    29   ar
    21    29    32    1
    22    32    33    1
    23    32    34    2
    24    32    35    2
    25    29    30   ar
    26    30    31   ar
    27     3     4   ar
    28     4     5   ar
    29     5    36    1
    30    36    37    1
    31    37    38    1
    32    37    39    1
    33     5     6   ar
    34    14    15   ar
    35    17    22    1
    36    22    23    1
    37    23    24    1
    38    15    11   ar
    39     6     1   ar
    40    31    26   ar
    41     7    10    1
@<TRIPOS>MOLECULE
*****
 39 41 0 0 0
SMALL
GASTEIGER

@<TRIPOS>ATOM
      1 C         142.5082  138.8873  159.9327 C.ar    1  UNL1        0.0597
      2 C         141.8445  137.9370  158.9806 C.ar    1  UNL1        0.0422
      3 C         142.1803  137.9827  157.5194 C.ar    1  UNL1        0.1485
      4 C         143.1797  138.9787  157.0103 C.ar    1  UNL1        0.0743
      5 C         143.8433  139.9290  157.9624 C.ar    1  UNL1        0.1416
      6 C         143.5076  139.8832  159.4235 C.ar    1  UNL1        0.0416
      7 N         142.9485  139.6772  162.3683 N.am    1  UNL1       -0.2644
      8 C         142.1724  138.8416  161.3939 C.2     1  UNL1        0.2508
      9 O         141.0606  137.9602  161.8808 O.2     1  UNL1       -0.2698
     10 H         143.6782  140.2557  162.0487 H       1  UNL1        0.1566
     11 N         141.6627  140.1680  165.9975 N.ar    1  UNL1       -0.2357
     12 C         142.5296  138.9544  166.1588 C.ar    1  UNL1        0.0988
     13 C         143.1167  138.6229  164.8188 C.ar    1  UNL1        0.0565
     14 C         142.6127  139.6316  163.8295 C.ar    1  UNL1        0.1557
     15 N         141.7141  140.5865  164.5580 N.ar    1  UNL1       -0.1534
     16 C         140.8816  140.8443  167.0849 C.3     1  UNL1        0.2423
     17 P         139.7529  140.1215  167.7584 P.3     1  UNL1        0.3677
     18 O         138.6242  139.3987  168.4318 O.2     1  UNL1       -0.2557
     19 O         140.5517  140.0551  169.0262 O.3     1  UNL1       -0.2928
     20 C         141.1827  141.3751  171.1731 C.3     1  UNL1        0.0352
     21 C         140.1435  140.8757  170.2136 C.3     1  UNL1        0.1515
     22 O         138.9540  140.1879  166.4904 O.3     1  UNL1       -0.2928
     23 C         138.2387  138.9681  165.9900 C.3     1  UNL1        0.1515
     24 C         138.9892  137.9207  165.2221 C.3     1  UNL1        0.0352
     25 O         141.5166  137.0324  156.5672 O.3     1  UNL1       -0.4518
     26 C         142.1386  135.6969  156.2851 C.ar    1  UNL1        0.1645
     27 C         141.6195  134.8502  155.1609 C.ar    1  UNL1        0.0420
     28 C         142.2414  133.5147  154.8788 C.ar    1  UNL1        0.0411
     29 C         143.3824  133.0258  155.7210 C.ar    1  UNL1        0.1865
     30 N         143.9014  133.8724  156.8452 N.ar    1  UNL1       -0.2225
     31 C         143.2795  135.2079  157.1272 C.ar    1  UNL1        0.1377
     32 S         144.0044  131.6903  155.4389 S.O2    1  UNL1        0.0268
     33 C         144.6263  130.3548  155.1568 C.3     1  UNL1        0.1834
     34 O         145.2406  132.1100  156.1775 O.2     1  UNL1       -0.1671
     35 O         142.7681  131.2706  154.7002 O.2     1  UNL1       -0.1671
     36 O         144.8427  140.9249  157.4532 O.3     1  UNL1       -0.4791
     37 C         144.3832  142.1039  156.6478 C.3     1  UNL1        0.1661
     38 C         145.0717  142.4468  155.3600 C.3     1  UNL1        0.0472
     39 C         143.2350  142.9401  157.1302 C.3     1  UNL1        0.0472
@<TRIPOS>BOND
     1    20    21    1
     2    21    19    1
     3    19    17    1
     4    17    18    2
     5    17    16    1
     6    16    11    1
     7    11    12   ar
     8    12    13   ar
     9    13    14   ar
    10    14     7    1
    11     7     8   am
    12     8     9    2
    13     8     1    1
    14     1     2   ar
    15     2     3   ar
    16     3    25    1
    17    25    26    1
    18    26    27   ar
    19    27    28   ar
    20    28    29   ar
    21    29    32    1
    22    32    33    1
    23    32    34    2
    24    32    35    2
    25    29    30   ar
    26    30    31   ar
    27     3     4   ar
    28     4     5   ar
    29     5    36    1
    30    36    37    1
    31    37    38    1
    32    37    39    1
    33     5     6   ar
    34    14    15   ar
    35    17    22    1
    36    22    23    1
    37    23    24    1
    38    15    11   ar
    39     6     1   ar
    40    31    26   ar
    41     7    10    1
