@<TRIPOS>MOLECULE
*****
 37 40 0 0 0
SMALL
GASTEIGER

@<TRIPOS>ATOM
      1 C         139.6915  139.8810  165.6401 C.ar    1  UNL1        0.1411
      2 C         140.0377  139.0049  164.4729 C.ar    1  UNL1        0.0342
      3 C         141.3542  138.2870  164.4384 C.ar    1  UNL1       -0.0001
      4 C         142.3247  138.4452  165.5711 C.ar    1  UNL1        0.0342
      5 C         141.9785  139.3213  166.7384 C.ar    1  UNL1        0.1411
      6 C         140.6619  140.0392  166.7729 C.ar    1  UNL1        0.0679
      7 C         140.3158  140.9154  167.9402 C.ar    1  UNL1        0.0060
      8 C         139.4484  140.3864  169.0438 C.ar    1  UNL1        0.0025
      9 C         139.1022  141.2625  170.2110 C.ar    1  UNL1        0.0296
     10 C         139.6235  142.6676  170.2749 C.ar    1  UNL1        0.1401
     11 F         139.2774  143.5437  171.4422 F       1  UNL1       -0.2042
     12 C         140.4909  143.1966  169.1713 C.ar    1  UNL1        0.0296
     13 C         140.8371  142.3204  168.0040 C.ar    1  UNL1        0.0025
     14 O         138.3749  140.5990  165.6746 O.3     1  UNL1       -0.4754
     15 C         138.9824  142.9523  164.7566 C.3     1  UNL1        0.0512
     16 C         138.1126  141.7306  164.7256 C.3     1  UNL1        0.2055
     17 C         141.7004  137.4108  163.2710 C.3     1  UNL1        0.0993
     18 N         142.2767  138.0148  162.0248 N.3     1  UNL1       -0.2688
     19 C         141.4052  138.2294  160.8230 C.3     1  UNL1        0.0741
     20 C         141.9815  138.8334  159.5768 C.3     1  UNL1        0.0369
     21 C         143.4295  139.2229  159.5325 C.3     1  UNL1        0.0746
     22 C         144.3009  139.0083  160.7343 C.3     1  UNL1        0.0369
     23 C         143.7246  138.4043  161.9805 C.3     1  UNL1        0.0741
     24 N         144.0058  139.8269  158.2863 N.am    1  UNL1       -0.3024
     25 C         144.0807  141.3180  158.1409 C.2     1  UNL1        0.2473
     26 O         143.5793  142.2050  159.2417 O.2     1  UNL1       -0.2701
     27 H         144.3349  139.2447  157.5638 H       1  UNL1        0.1497
     28 C         144.6571  141.9220  156.8947 C.ar    1  UNL1        0.0722
     29 C         143.7697  142.6688  155.9435 C.ar    1  UNL1        0.1033
     30 N         144.3461  143.2728  154.6973 N.ar    1  UNL1       -0.2425
     31 C         145.8098  143.1301  154.4024 C.ar    1  UNL1        0.0946
     32 C         146.6973  142.3833  155.3536 C.ar    1  UNL1       -0.0025
     33 C         148.1610  142.2406  155.0587 C.3     1  UNL1        0.0327
     34 C         146.1209  141.7793  156.5998 C.ar    1  UNL1        0.0034
     35 O         142.9490  139.4795  167.8712 O.3     1  UNL1       -0.4754
     36 C         142.6100  138.9416  169.2298 C.3     1  UNL1        0.2055
     37 C         142.8702  139.7719  170.4516 C.3     1  UNL1        0.0512
@<TRIPOS>BOND
     1    15    16    1
     2    16    14    1
     3    14     1    1
     4     1     2   ar
     5     2     3   ar
     6     3    17    1
     7    17    18    1
     8    18    19    1
     9    19    20    1
    10    20    21    1
    11    21    24    1
    12    24    25   am
    13    25    26    2
    14    25    28    1
    15    28    29   ar
    16    29    30   ar
    17    30    31   ar
    18    31    32   ar
    19    32    33    1
    20    32    34   ar
    21    21    22    1
    22    22    23    1
    23     3     4   ar
    24     4     5   ar
    25     5    35    1
    26    35    36    1
    27    36    37    1
    28     5     6   ar
    29     6     7    1
    30     7     8   ar
    31     8     9   ar
    32     9    10   ar
    33    10    11    1
    34    10    12   ar
    35    12    13   ar
    36     6     1   ar
    37    13     7   ar
    38    23    18    1
    39    34    28   ar
    40    24    27    1
@<TRIPOS>MOLECULE
*****
 37 40 0 0 0
SMALL
GASTEIGER

@<TRIPOS>ATOM
      1 C         138.9370  140.3904  164.7354 C.ar    1  UNL1        0.1411
      2 C         138.9235  139.6874  163.4105 C.ar    1  UNL1        0.0342
      3 C         139.9721  138.6624  163.0945 C.ar    1  UNL1       -0.0001
      4 C         141.0342  138.3403  164.1036 C.ar    1  UNL1        0.0342
      5 C         141.0477  139.0433  165.4286 C.ar    1  UNL1        0.1411
      6 C         139.9991  140.0683  165.7445 C.ar    1  UNL1        0.0679
      7 C         140.0126  140.7713  167.0696 C.ar    1  UNL1        0.0060
      8 C         139.4448  140.0960  168.2826 C.ar    1  UNL1        0.0025
      9 C         139.4583  140.7989  169.6076 C.ar    1  UNL1        0.0296
     10 C         140.0397  142.1772  169.7196 C.ar    1  UNL1        0.1401
     11 F         140.0532  142.8801  171.0446 F       1  UNL1       -0.2042
     12 C         140.6075  142.8525  168.5066 C.ar    1  UNL1        0.0296
     13 C         140.5940  142.1495  167.1815 C.ar    1  UNL1        0.0025
     14 O         137.8884  141.4154  165.0514 O.3     1  UNL1       -0.4754
     15 C         138.2690  143.9619  164.7049 C.3     1  UNL1        0.0512
     16 C         137.7603  142.6440  164.2006 C.3     1  UNL1        0.2055
     17 C         139.9586  137.9594  161.7695 C.3     1  UNL1        0.0993
     18 N         140.9341  138.3548  160.7008 N.3     1  UNL1       -0.2688
     19 C         142.4073  138.1966  160.9343 C.3     1  UNL1        0.0741
     20 C         143.3828  138.5920  159.8656 C.3     1  UNL1        0.0369
     21 C         142.8850  139.1455  158.5633 C.3     1  UNL1        0.0746
     22 C         141.4118  139.3036  158.3298 C.3     1  UNL1        0.0369
     23 C         140.4363  138.9082  159.3985 C.3     1  UNL1        0.0741
     24 N         143.8604  139.5408  157.4946 N.am    1  UNL1       -0.3024
     25 C         144.5218  140.8863  157.5433 C.2     1  UNL1        0.2473
     26 O         144.2076  141.8364  158.6607 O.2     1  UNL1       -0.2701
     27 H         144.0666  138.9172  156.7612 H       1  UNL1        0.1497
     28 C         145.4972  141.2817  156.4746 C.ar    1  UNL1        0.0722
     29 C         146.5950  142.2558  156.7843 C.ar    1  UNL1        0.1033
     30 N         147.5705  142.6511  155.7155 N.ar    1  UNL1       -0.2425
     31 C         147.4482  142.0724  154.3371 C.ar    1  UNL1        0.0946
     32 C         146.3503  141.0982  154.0274 C.ar    1  UNL1       -0.0025
     33 C         146.2280  140.5195  152.6490 C.3     1  UNL1        0.0327
     34 C         145.3749  140.7029  155.0961 C.ar    1  UNL1        0.0034
     35 O         142.1098  138.7213  166.4377 O.3     1  UNL1       -0.4754
     36 C         143.4733  138.2942  165.9811 C.3     1  UNL1        0.2055
     37 C         144.3131  139.2234  165.1558 C.3     1  UNL1        0.0512
@<TRIPOS>BOND
     1    15    16    1
     2    16    14    1
     3    14     1    1
     4     1     2   ar
     5     2     3   ar
     6     3    17    1
     7    17    18    1
     8    18    19    1
     9    19    20    1
    10    20    21    1
    11    21    24    1
    12    24    25   am
    13    25    26    2
    14    25    28    1
    15    28    29   ar
    16    29    30   ar
    17    30    31   ar
    18    31    32   ar
    19    32    33    1
    20    32    34   ar
    21    21    22    1
    22    22    23    1
    23     3     4   ar
    24     4     5   ar
    25     5    35    1
    26    35    36    1
    27    36    37    1
    28     5     6   ar
    29     6     7    1
    30     7     8   ar
    31     8     9   ar
    32     9    10   ar
    33    10    11    1
    34    10    12   ar
    35    12    13   ar
    36     6     1   ar
    37    13     7   ar
    38    23    18    1
    39    34    28   ar
    40    24    27    1
@<TRIPOS>MOLECULE
*****
 37 40 0 0 0
SMALL
GASTEIGER

@<TRIPOS>ATOM
      1 C         142.0016  139.3476  166.6612 C.ar    1  UNL1        0.1411
      2 C         142.3431  138.4647  165.4977 C.ar    1  UNL1        0.0342
      3 C         141.3597  138.2835  164.3796 C.ar    1  UNL1       -0.0001
      4 C         140.0348  138.9853  164.4250 C.ar    1  UNL1        0.0342
      5 C         139.6933  139.8683  165.5885 C.ar    1  UNL1        0.1411
      6 C         140.6767  140.0494  166.7066 C.ar    1  UNL1        0.0679
      7 C         140.3352  140.9325  167.8701 C.ar    1  UNL1        0.0060
      8 C         139.5106  140.3957  169.0023 C.ar    1  UNL1        0.0025
      9 C         139.1690  141.2786  170.1657 C.ar    1  UNL1        0.0296
     10 C         139.6521  142.6984  170.1971 C.ar    1  UNL1        0.1401
     11 F         139.3106  143.5813  171.3606 F       1  UNL1       -0.2042
     12 C         140.4768  143.2352  169.0649 C.ar    1  UNL1        0.0296
     13 C         140.8183  142.3521  167.9014 C.ar    1  UNL1        0.0025
     14 O         142.9850  139.5288  167.7792 O.3     1  UNL1       -0.4754
     15 C         142.6065  139.3129  170.3405 C.3     1  UNL1        0.0512
     16 C         142.8858  138.6779  169.0105 C.3     1  UNL1        0.2055
     17 C         141.7012  137.4005  163.2161 C.3     1  UNL1        0.0993
     18 N         142.2186  138.0032  161.9437 N.3     1  UNL1       -0.2688
     19 C         141.2678  138.3457  160.8351 C.3     1  UNL1        0.0741
     20 C         141.7852  138.9484  159.5627 C.3     1  UNL1        0.0369
     21 C         143.2534  139.2086  159.3988 C.3     1  UNL1        0.0746
     22 C         144.2041  138.8662  160.5073 C.3     1  UNL1        0.0369
     23 C         143.6867  138.2635  161.7797 C.3     1  UNL1        0.0741
     24 N         143.7708  139.8113  158.1264 N.am    1  UNL1       -0.3024
     25 C         144.2814  141.2218  158.1180 C.2     1  UNL1        0.2473
     26 O         144.2747  142.0294  159.3819 O.2     1  UNL1       -0.2701
     27 H         143.7752  139.2812  157.2968 H       1  UNL1        0.1497
     28 C         144.7988  141.8245  156.8456 C.ar    1  UNL1        0.0722
     29 C         143.8461  142.4491  155.8698 C.ar    1  UNL1        0.1033
     30 N         144.3635  143.0518  154.5974 N.ar    1  UNL1       -0.2425
     31 C         145.8336  143.0299  154.3007 C.ar    1  UNL1        0.0946
     32 C         146.7865  142.4053  155.2765 C.ar    1  UNL1       -0.0025
     33 C         148.2567  142.3834  154.9797 C.3     1  UNL1        0.0327
     34 C         146.2691  141.8026  156.5489 C.ar    1  UNL1        0.0034
     35 O         138.3684  140.5702  165.6339 O.3     1  UNL1       -0.4754
     36 C         137.9187  141.3997  164.4679 C.3     1  UNL1        0.2055
     37 C         138.0854  142.8900  164.4990 C.3     1  UNL1        0.0512
@<TRIPOS>BOND
     1    15    16    1
     2    16    14    1
     3    14     1    1
     4     1     2   ar
     5     2     3   ar
     6     3    17    1
     7    17    18    1
     8    18    19    1
     9    19    20    1
    10    20    21    1
    11    21    24    1
    12    24    25   am
    13    25    26    2
    14    25    28    1
    15    28    29   ar
    16    29    30   ar
    17    30    31   ar
    18    31    32   ar
    19    32    33    1
    20    32    34   ar
    21    21    22    1
    22    22    23    1
    23     3     4   ar
    24     4     5   ar
    25     5    35    1
    26    35    36    1
    27    36    37    1
    28     5     6   ar
    29     6     7    1
    30     7     8   ar
    31     8     9   ar
    32     9    10   ar
    33    10    11    1
    34    10    12   ar
    35    12    13   ar
    36     6     1   ar
    37    13     7   ar
    38    23    18    1
    39    34    28   ar
    40    24    27    1
@<TRIPOS>MOLECULE
*****
 37 40 0 0 0
SMALL
GASTEIGER

@<TRIPOS>ATOM
      1 C         141.8313  140.9268  164.1425 C.ar    1  UNL1        0.1411
      2 C         142.0101  140.9274  162.6532 C.ar    1  UNL1        0.0342
      3 C         140.9092  141.4278  161.7658 C.ar    1  UNL1       -0.0001
      4 C         139.6294  141.9277  162.3677 C.ar    1  UNL1        0.0342
      5 C         139.4507  141.9272  163.8570 C.ar    1  UNL1        0.1411
      6 C         140.5516  141.4267  164.7444 C.ar    1  UNL1        0.0679
      7 C         140.3728  141.4262  166.2337 C.ar    1  UNL1        0.0060
      8 C         139.7117  140.2614  166.9093 C.ar    1  UNL1        0.0025
      9 C         139.5329  140.2609  168.3986 C.ar    1  UNL1        0.0296
     10 C         140.0151  141.4251  169.2123 C.ar    1  UNL1        0.1401
     11 F         139.8362  141.4245  170.7016 F       1  UNL1       -0.2042
     12 C         140.6761  142.5898  168.5368 C.ar    1  UNL1        0.0296
     13 C         140.8549  142.5904  167.0474 C.ar    1  UNL1        0.0025
     14 O         142.9323  140.4264  165.0299 O.3     1  UNL1       -0.4754
     15 C         141.9484  138.0253  164.9014 C.3     1  UNL1        0.0512
     16 C         142.9636  138.9857  165.4463 C.3     1  UNL1        0.2055
     17 C         141.0880  141.4284  160.2765 C.3     1  UNL1        0.0993
     18 N         140.8272  142.6789  159.4902 N.3     1  UNL1       -0.2688
     19 C         139.6635  142.7420  158.5458 C.3     1  UNL1        0.0741
     20 C         139.4026  143.9925  157.7596 C.3     1  UNL1        0.0369
     21 C         140.3055  145.1799  157.9178 C.3     1  UNL1        0.0746
     22 C         141.4691  145.1168  158.8622 C.3     1  UNL1        0.0369
     23 C         141.7300  143.8663  159.6484 C.3     1  UNL1        0.0741
     24 N         140.0447  146.4305  157.1315 N.am    1  UNL1       -0.3024
     25 C         140.3815  146.4819  155.6707 C.2     1  UNL1        0.2473
     26 O         140.9791  145.2828  154.9962 O.2     1  UNL1       -0.2701
     27 H         139.6524  147.2175  157.5743 H       1  UNL1        0.1497
     28 C         140.1206  147.7324  154.8845 C.ar    1  UNL1        0.0722
     29 C         140.5554  147.8219  153.4517 C.ar    1  UNL1        0.1033
     30 N         140.2946  149.0724  152.6654 N.ar    1  UNL1       -0.2425
     31 C         139.5990  150.2334  153.3120 C.ar    1  UNL1        0.0946
     32 C         139.1641  150.1440  154.7449 C.ar    1  UNL1       -0.0025
     33 C         138.4685  151.3050  155.3914 C.3     1  UNL1        0.0327
     34 C         139.4250  148.8935  155.5311 C.ar    1  UNL1        0.0034
     35 O         138.1709  142.4271  164.4590 O.3     1  UNL1       -0.4754
     36 C         137.8625  143.8951  164.4532 C.3     1  UNL1        0.2055
     37 C         138.7578  144.8523  165.1825 C.3     1  UNL1        0.0512
@<TRIPOS>BOND
     1    15    16    1
     2    16    14    1
     3    14     1    1
     4     1     2   ar
     5     2     3   ar
     6     3    17    1
     7    17    18    1
     8    18    19    1
     9    19    20    1
    10    20    21    1
    11    21    24    1
    12    24    25   am
    13    25    26    2
    14    25    28    1
    15    28    29   ar
    16    29    30   ar
    17    30    31   ar
    18    31    32   ar
    19    32    33    1
    20    32    34   ar
    21    21    22    1
    22    22    23    1
    23     3     4   ar
    24     4     5   ar
    25     5    35    1
    26    35    36    1
    27    36    37    1
    28     5     6   ar
    29     6     7    1
    30     7     8   ar
    31     8     9   ar
    32     9    10   ar
    33    10    11    1
    34    10    12   ar
    35    12    13   ar
    36     6     1   ar
    37    13     7   ar
    38    23    18    1
    39    34    28   ar
    40    24    27    1
@<TRIPOS>MOLECULE
*****
 37 40 0 0 0
SMALL
GASTEIGER

@<TRIPOS>ATOM
      1 C         142.0823  141.3072  164.4528 C.ar    1  UNL1        0.1411
      2 C         142.3530  141.3797  162.9792 C.ar    1  UNL1        0.0342
      3 C         141.2649  141.8010  162.0366 C.ar    1  UNL1       -0.0001
      4 C         139.9061  142.1498  162.5675 C.ar    1  UNL1        0.0342
      5 C         139.6354  142.0774  164.0410 C.ar    1  UNL1        0.1411
      6 C         140.7235  141.6561  164.9837 C.ar    1  UNL1        0.0679
      7 C         140.4527  141.5837  166.4573 C.ar    1  UNL1        0.0060
      8 C         140.7438  142.7667  167.3324 C.ar    1  UNL1        0.0025
      9 C         140.4731  142.6943  168.8059 C.ar    1  UNL1        0.0296
     10 C         139.9112  141.4389  169.4045 C.ar    1  UNL1        0.1401
     11 F         139.6404  141.3665  170.8781 F       1  UNL1       -0.2042
     12 C         139.6201  140.2558  168.5294 C.ar    1  UNL1        0.0296
     13 C         139.8908  140.3283  167.0558 C.ar    1  UNL1        0.0025
     14 O         143.1704  140.8859  165.3954 O.3     1  UNL1       -0.4754
     15 C         142.5652  138.3601  165.3326 C.3     1  UNL1        0.0512
     16 C         143.5904  139.4475  165.4611 C.3     1  UNL1        0.2055
     17 C         141.5357  141.8734  160.5629 C.3     1  UNL1        0.0993
     18 N         141.8933  140.6299  159.8041 N.3     1  UNL1       -0.2688
     19 C         141.2303  139.3277  160.1430 C.3     1  UNL1        0.0741
     20 C         141.5879  138.0842  159.3842 C.3     1  UNL1        0.0369
     21 C         142.6085  138.1429  158.2865 C.3     1  UNL1        0.0746
     22 C         143.2714  139.4450  157.9476 C.3     1  UNL1        0.0369
     23 C         142.9138  140.6885  158.7064 C.3     1  UNL1        0.0741
     24 N         142.9661  136.8994  157.5276 N.am    1  UNL1       -0.3024
     25 C         141.9884  136.3058  156.5571 C.2     1  UNL1        0.2473
     26 O         140.6532  136.9557  156.3454 O.2     1  UNL1       -0.2701
     27 H         143.8424  136.4728  157.6666 H       1  UNL1        0.1497
     28 C         142.3460  135.0623  155.7983 C.ar    1  UNL1        0.0722
     29 C         141.6673  134.7571  154.4959 C.ar    1  UNL1        0.1033
     30 N         142.0249  133.5136  153.7371 N.ar    1  UNL1       -0.2425
     31 C         143.0612  132.5752  154.2806 C.ar    1  UNL1        0.0946
     32 C         143.7400  132.8803  155.5831 C.ar    1  UNL1       -0.0025
     33 C         144.7763  131.9420  156.1266 C.3     1  UNL1        0.0327
     34 C         143.3824  134.1238  156.3419 C.ar    1  UNL1        0.0034
     35 O         138.2765  142.4262  164.5720 O.3     1  UNL1       -0.4754
     36 C         137.8561  143.8627  164.6711 C.3     1  UNL1        0.2055
     37 C         138.8618  144.9153  165.0326 C.3     1  UNL1        0.0512
@<TRIPOS>BOND
     1    15    16    1
     2    16    14    1
     3    14     1    1
     4     1     2   ar
     5     2     3   ar
     6     3    17    1
     7    17    18    1
     8    18    19    1
     9    19    20    1
    10    20    21    1
    11    21    24    1
    12    24    25   am
    13    25    26    2
    14    25    28    1
    15    28    29   ar
    16    29    30   ar
    17    30    31   ar
    18    31    32   ar
    19    32    33    1
    20    32    34   ar
    21    21    22    1
    22    22    23    1
    23     3     4   ar
    24     4     5   ar
    25     5    35    1
    26    35    36    1
    27    36    37    1
    28     5     6   ar
    29     6     7    1
    30     7     8   ar
    31     8     9   ar
    32     9    10   ar
    33    10    11    1
    34    10    12   ar
    35    12    13   ar
    36     6     1   ar
    37    13     7   ar
    38    23    18    1
    39    34    28   ar
    40    24    27    1
@<TRIPOS>MOLECULE
*****
 37 40 0 0 0
SMALL
GASTEIGER

@<TRIPOS>ATOM
      1 C         141.7621  140.3444  164.5739 C.ar    1  UNL1        0.1411
      2 C         141.6223  140.0793  163.1042 C.ar    1  UNL1        0.0342
      3 C         141.2309  141.1904  162.1756 C.ar    1  UNL1       -0.0001
      4 C         140.9794  142.5665  162.7167 C.ar    1  UNL1        0.0342
      5 C         141.1191  142.8316  164.1864 C.ar    1  UNL1        0.1411
      6 C         141.5105  141.7205  165.1150 C.ar    1  UNL1        0.0679
      7 C         141.6503  141.9857  166.5848 C.ar    1  UNL1        0.0060
      8 C         140.4268  142.1330  167.4400 C.ar    1  UNL1        0.0025
      9 C         140.5665  142.3981  168.9097 C.ar    1  UNL1        0.0296
     10 C         141.9297  142.5159  169.5244 C.ar    1  UNL1        0.1401
     11 F         142.0695  142.7811  170.9941 F       1  UNL1       -0.2042
     12 C         143.1532  142.3686  168.6692 C.ar    1  UNL1        0.0296
     13 C         143.0135  142.1035  167.1994 C.ar    1  UNL1        0.0025
     14 O         142.1534  139.2333  165.5026 O.3     1  UNL1       -0.4754
     15 C         144.0135  137.8585  166.6858 C.3     1  UNL1        0.0512
     16 C         143.5918  138.8239  165.6180 C.3     1  UNL1        0.2055
     17 C         141.0912  140.9252  160.7058 C.3     1  UNL1        0.0993
     18 N         142.1566  141.3863  159.7559 N.3     1  UNL1       -0.2688
     19 C         143.4641  141.8962  160.2856 C.3     1  UNL1        0.0741
     20 C         144.5295  142.3572  159.3357 C.3     1  UNL1        0.0369
     21 C         144.2874  142.3084  157.8561 C.3     1  UNL1        0.0746
     22 C         142.9800  141.7985  157.3265 C.3     1  UNL1        0.0369
     23 C         141.9145  141.3375  158.2764 C.3     1  UNL1        0.0741
     24 N         145.3528  142.7695  156.9062 N.am    1  UNL1       -0.3024
     25 C         146.1227  141.7668  156.0987 C.2     1  UNL1        0.2473
     26 O         145.8272  140.3031  156.2411 O.2     1  UNL1       -0.2701
     27 H         145.5468  143.7301  156.8127 H       1  UNL1        0.1497
     28 C         147.1881  142.2279  155.1488 C.ar    1  UNL1        0.0722
     29 C         146.8459  143.1834  154.0443 C.ar    1  UNL1        0.1033
     30 N         147.9113  143.6444  153.0944 N.ar    1  UNL1       -0.2425
     31 C         149.3190  143.1500  153.2490 C.ar    1  UNL1        0.0946
     32 C         149.6613  142.1944  154.3535 C.ar    1  UNL1       -0.0025
     33 C         151.0690  141.7000  154.5080 C.3     1  UNL1        0.0327
     34 C         148.5959  141.7334  155.3034 C.ar    1  UNL1        0.0034
     35 O         140.8675  144.2078  164.7276 O.3     1  UNL1       -0.4754
     36 C         139.5334  144.8620  164.5225 C.3     1  UNL1        0.2055
     37 C         138.5315  144.8883  165.6385 C.3     1  UNL1        0.0512
@<TRIPOS>BOND
     1    15    16    1
     2    16    14    1
     3    14     1    1
     4     1     2   ar
     5     2     3   ar
     6     3    17    1
     7    17    18    1
     8    18    19    1
     9    19    20    1
    10    20    21    1
    11    21    24    1
    12    24    25   am
    13    25    26    2
    14    25    28    1
    15    28    29   ar
    16    29    30   ar
    17    30    31   ar
    18    31    32   ar
    19    32    33    1
    20    32    34   ar
    21    21    22    1
    22    22    23    1
    23     3     4   ar
    24     4     5   ar
    25     5    35    1
    26    35    36    1
    27    36    37    1
    28     5     6   ar
    29     6     7    1
    30     7     8   ar
    31     8     9   ar
    32     9    10   ar
    33    10    11    1
    34    10    12   ar
    35    12    13   ar
    36     6     1   ar
    37    13     7   ar
    38    23    18    1
    39    34    28   ar
    40    24    27    1
@<TRIPOS>MOLECULE
*****
 37 40 0 0 0
SMALL
GASTEIGER

@<TRIPOS>ATOM
      1 C         141.4590  140.6658  164.1402 C.ar    1  UNL1        0.1411
      2 C         141.5049  140.5464  162.6457 C.ar    1  UNL1        0.0342
      3 C         140.3652  141.0603  161.8169 C.ar    1  UNL1       -0.0001
      4 C         139.1795  141.6935  162.4826 C.ar    1  UNL1        0.0342
      5 C         139.1336  141.8129  163.9771 C.ar    1  UNL1        0.1411
      6 C         140.2734  141.2990  164.8059 C.ar    1  UNL1        0.0679
      7 C         140.2274  141.4185  166.3005 C.ar    1  UNL1        0.0060
      8 C         140.6698  142.6882  166.9654 C.ar    1  UNL1        0.0025
      9 C         140.6238  142.8077  168.4599 C.ar    1  UNL1        0.0296
     10 C         140.1355  141.6573  169.2896 C.ar    1  UNL1        0.1401
     11 F         140.0896  141.7768  170.7841 F       1  UNL1       -0.2042
     12 C         139.6931  140.3876  168.6247 C.ar    1  UNL1        0.0296
     13 C         139.7391  140.2682  167.1301 C.ar    1  UNL1        0.0025
     14 O         142.5988  140.1520  164.9691 O.3     1  UNL1       -0.4754
     15 C         143.6792  138.2275  166.3399 C.3     1  UNL1        0.0512
     16 C         142.6503  138.7042  165.3580 C.3     1  UNL1        0.2055
     17 C         140.4112  140.9408  160.3223 C.3     1  UNL1        0.0993
     18 N         141.6586  141.3149  159.5781 N.3     1  UNL1       -0.2688
     19 C         142.5950  140.2456  159.0986 C.3     1  UNL1        0.0741
     20 C         143.8425  140.6196  158.3543 C.3     1  UNL1        0.0369
     21 C         144.1536  142.0630  158.0896 C.3     1  UNL1        0.0746
     22 C         143.2172  143.1322  158.5691 C.3     1  UNL1        0.0369
     23 C         141.9698  142.7581  159.3133 C.3     1  UNL1        0.0741
     24 N         145.4011  142.4370  157.3454 N.am    1  UNL1       -0.3024
     25 C         145.4972  142.1874  155.8693 C.2     1  UNL1        0.2473
     26 O         144.3458  141.5638  155.1377 O.2     1  UNL1       -0.2701
     27 H         146.1568  142.8463  157.8256 H       1  UNL1        0.1497
     28 C         146.7446  142.5614  155.1251 C.ar    1  UNL1        0.0722
     29 C         146.7394  143.7398  154.1970 C.ar    1  UNL1        0.1033
     30 N         147.9869  144.1138  153.4528 N.ar    1  UNL1       -0.2425
     31 C         149.2396  143.3095  153.6366 C.ar    1  UNL1        0.0946
     32 C         149.2448  142.1311  154.5647 C.ar    1  UNL1       -0.0025
     33 C         150.4975  141.3267  154.7486 C.3     1  UNL1        0.0327
     34 C         147.9973  141.7570  155.3090 C.ar    1  UNL1        0.0034
     35 O         137.9479  142.4461  164.6428 O.3     1  UNL1       -0.4754
     36 C         137.7889  143.9376  164.6307 C.3     1  UNL1        0.2055
     37 C         138.9992  144.8204  164.5546 C.3     1  UNL1        0.0512
@<TRIPOS>BOND
     1    15    16    1
     2    16    14    1
     3    14     1    1
     4     1     2   ar
     5     2     3   ar
     6     3    17    1
     7    17    18    1
     8    18    19    1
     9    19    20    1
    10    20    21    1
    11    21    24    1
    12    24    25   am
    13    25    26    2
    14    25    28    1
    15    28    29   ar
    16    29    30   ar
    17    30    31   ar
    18    31    32   ar
    19    32    33    1
    20    32    34   ar
    21    21    22    1
    22    22    23    1
    23     3     4   ar
    24     4     5   ar
    25     5    35    1
    26    35    36    1
    27    36    37    1
    28     5     6   ar
    29     6     7    1
    30     7     8   ar
    31     8     9   ar
    32     9    10   ar
    33    10    11    1
    34    10    12   ar
    35    12    13   ar
    36     6     1   ar
    37    13     7   ar
    38    23    18    1
    39    34    28   ar
    40    24    27    1
@<TRIPOS>MOLECULE
*****
 37 40 0 0 0
SMALL
GASTEIGER

@<TRIPOS>ATOM
      1 C         138.9692  141.9308  163.5036 C.ar    1  UNL1        0.1411
      2 C         138.9670  141.9299  162.0036 C.ar    1  UNL1        0.0342
      3 C         140.1481  141.3909  161.2522 C.ar    1  UNL1       -0.0001
      4 C         141.3313  140.8528  162.0008 C.ar    1  UNL1        0.0342
      5 C         141.3335  140.8537  163.5007 C.ar    1  UNL1        0.1411
      6 C         140.1525  141.3928  164.2521 C.ar    1  UNL1        0.0679
      7 C         140.1547  141.3937  165.7522 C.ar    1  UNL1        0.0060
      8 C         139.5641  140.2376  166.5037 C.ar    1  UNL1        0.0025
      9 C         139.5663  140.2385  168.0037 C.ar    1  UNL1        0.0296
     10 C         140.1592  141.3954  168.7522 C.ar    1  UNL1        0.1401
     11 F         140.1614  141.3963  170.2522 F       1  UNL1       -0.2042
     12 C         140.7498  142.5514  168.0007 C.ar    1  UNL1        0.0296
     13 C         140.7475  142.5505  166.5006 C.ar    1  UNL1        0.0025
     14 O         137.7882  142.4699  164.2550 O.3     1  UNL1       -0.4754
     15 C         138.8540  144.8392  164.2509 C.3     1  UNL1        0.0512
     16 C         137.7732  143.9018  164.7014 C.3     1  UNL1        0.2055
     17 C         140.1458  141.3900  159.7522 C.3     1  UNL1        0.0993
     18 N         140.2129  142.6868  159.0013 N.3     1  UNL1       -0.2688
     19 C         140.2354  142.6847  157.5014 C.3     1  UNL1        0.0741
     20 C         140.3024  143.9815  156.7506 C.3     1  UNL1        0.0369
     21 C         140.3469  145.2804  157.4996 C.3     1  UNL1        0.0746
     22 C         140.3244  145.2825  158.9994 C.3     1  UNL1        0.0369
     23 C         140.2574  143.9857  159.7502 C.3     1  UNL1        0.0741
     24 N         140.4139  146.5772  156.7487 N.am    1  UNL1       -0.3024
     25 C         139.3593  146.9131  155.7363 C.2     1  UNL1        0.2473
     26 O         138.2376  145.9521  155.4747 O.2     1  UNL1       -0.2701
     27 H         141.1501  147.2080  156.9204 H       1  UNL1        0.1497
     28 C         139.4263  148.2099  154.9854 C.ar    1  UNL1        0.0722
     29 C         140.0260  148.2507  153.6112 C.ar    1  UNL1        0.1033
     30 N         140.0930  149.5475  152.8603 N.ar    1  UNL1       -0.2425
     31 C         139.5603  150.8035  153.4837 C.ar    1  UNL1        0.0946
     32 C         138.9606  150.7627  154.8581 C.ar    1  UNL1       -0.0025
     33 C         138.4279  152.0187  155.4815 C.3     1  UNL1        0.0327
     34 C         138.8936  149.4659  155.6089 C.ar    1  UNL1        0.0034
     35 O         142.5168  140.3156  164.2494 O.3     1  UNL1       -0.4754
     36 C         142.7855  138.8400  164.2667 C.3     1  UNL1        0.2055
     37 C         141.6453  137.8712  164.3738 C.3     1  UNL1        0.0512
@<TRIPOS>BOND
     1    15    16    1
     2    16    14    1
     3    14     1    1
     4     1     2   ar
     5     2     3   ar
     6     3    17    1
     7    17    18    1
     8    18    19    1
     9    19    20    1
    10    20    21    1
    11    21    24    1
    12    24    25   am
    13    25    26    2
    14    25    28    1
    15    28    29   ar
    16    29    30   ar
    17    30    31   ar
    18    31    32   ar
    19    32    33    1
    20    32    34   ar
    21    21    22    1
    22    22    23    1
    23     3     4   ar
    24     4     5   ar
    25     5    35    1
    26    35    36    1
    27    36    37    1
    28     5     6   ar
    29     6     7    1
    30     7     8   ar
    31     8     9   ar
    32     9    10   ar
    33    10    11    1
    34    10    12   ar
    35    12    13   ar
    36     6     1   ar
    37    13     7   ar
    38    23    18    1
    39    34    28   ar
    40    24    27    1
@<TRIPOS>MOLECULE
*****
 37 40 0 0 0
SMALL
GASTEIGER

@<TRIPOS>ATOM
      1 C         140.1304  141.8497  163.5186 C.ar    1  UNL1        0.1411
      2 C         140.5312  141.8901  162.0737 C.ar    1  UNL1        0.0342
      3 C         141.9098  141.4628  161.6655 C.ar    1  UNL1       -0.0001
      4 C         142.8878  140.9950  162.7022 C.ar    1  UNL1        0.0342
      5 C         142.4871  140.9546  164.1471 C.ar    1  UNL1        0.1411
      6 C         141.1084  141.3819  164.5553 C.ar    1  UNL1        0.0679
      7 C         140.7077  141.3415  166.0002 C.ar    1  UNL1        0.0060
      8 C         139.9916  140.1421  166.5467 C.ar    1  UNL1        0.0025
      9 C         139.5909  140.1016  167.9916 C.ar    1  UNL1        0.0296
     10 C         139.9063  141.2606  168.8901 C.ar    1  UNL1        0.1401
     11 F         139.5056  141.2201  170.3350 F       1  UNL1       -0.2042
     12 C         140.6224  142.4600  168.3437 C.ar    1  UNL1        0.0296
     13 C         141.0231  142.5004  166.8987 C.ar    1  UNL1        0.0025
     14 O         138.7518  142.2770  163.9268 O.3     1  UNL1       -0.4754
     15 C         139.3159  144.7487  164.4945 C.3     1  UNL1        0.0512
     16 C         138.3816  143.7305  163.9110 C.3     1  UNL1        0.2055
     17 C         142.3105  141.5032  160.2205 C.3     1  UNL1        0.0993
     18 N         142.2033  140.2671  159.3776 N.3     1  UNL1       -0.2688
     19 C         141.5352  140.3297  158.0361 C.3     1  UNL1        0.0741
     20 C         141.4279  139.0935  157.1932 C.3     1  UNL1        0.0369
     21 C         141.9889  137.7948  157.6919 C.3     1  UNL1        0.0746
     22 C         142.6570  137.7322  159.0334 C.3     1  UNL1        0.0369
     23 C         142.7642  138.9683  159.8763 C.3     1  UNL1        0.0741
     24 N         141.8817  136.5586  156.8490 N.am    1  UNL1       -0.3024
     25 C         143.0456  136.1190  156.0109 C.2     1  UNL1        0.2473
     26 O         144.3165  136.9156  156.0158 O.2     1  UNL1       -0.2701
     27 H         141.0475  136.0358  156.8458 H       1  UNL1        0.1497
     28 C         142.9383  134.8829  155.1681 C.ar    1  UNL1        0.0722
     29 C         142.2041  134.9278  153.8609 C.ar    1  UNL1        0.1033
     30 N         142.0969  133.6917  153.0180 N.ar    1  UNL1       -0.2425
     31 C         142.7239  132.4106  153.4823 C.ar    1  UNL1        0.0946
     32 C         143.4582  132.3656  154.7895 C.ar    1  UNL1       -0.0025
     33 C         144.0853  131.0846  155.2538 C.3     1  UNL1        0.0327
     34 C         143.5655  133.6018  155.6324 C.ar    1  UNL1        0.0034
     35 O         143.4650  140.4868  165.1838 O.3     1  UNL1       -0.4754
     36 C         143.5987  139.0229  165.4823 C.3     1  UNL1        0.2055
     37 C         143.3558  138.5158  166.8729 C.3     1  UNL1        0.0512
@<TRIPOS>BOND
     1    15    16    1
     2    16    14    1
     3    14     1    1
     4     1     2   ar
     5     2     3   ar
     6     3    17    1
     7    17    18    1
     8    18    19    1
     9    19    20    1
    10    20    21    1
    11    21    24    1
    12    24    25   am
    13    25    26    2
    14    25    28    1
    15    28    29   ar
    16    29    30   ar
    17    30    31   ar
    18    31    32   ar
    19    32    33    1
    20    32    34   ar
    21    21    22    1
    22    22    23    1
    23     3     4   ar
    24     4     5   ar
    25     5    35    1
    26    35    36    1
    27    36    37    1
    28     5     6   ar
    29     6     7    1
    30     7     8   ar
    31     8     9   ar
    32     9    10   ar
    33    10    11    1
    34    10    12   ar
    35    12    13   ar
    36     6     1   ar
    37    13     7   ar
    38    23    18    1
    39    34    28   ar
    40    24    27    1
