@<TRIPOS>MOLECULE
*****
 33 37 0 0 0
SMALL
GASTEIGER

@<TRIPOS>ATOM
      1 O         145.7324  140.3721  164.0369 O.2     1  UNL1       -0.2751
      2 C         144.6644  139.8140  164.6455 C.2     1  UNL1        0.2220
      3 N         144.8782  138.6472  165.5635 N.am    1  UNL1       -0.3040
      4 C         143.5412  138.2273  166.0986 C.3     1  UNL1        0.0941
      5 C         142.5011  139.1346  165.5111 C.3     1  UNL1        0.0501
      6 C         143.1953  140.1153  164.6130 C.3     1  UNL1        0.0768
      7 C         141.7079  140.2968  164.6806 C.3     1  UNL1        0.0263
      8 C         141.0488  141.3872  163.8891 C.3     1  UNL1        0.0726
      9 N         141.8770  142.2961  163.0300 N.3     1  UNL1       -0.2716
     10 C         143.3644  142.1145  162.9624 C.3     1  UNL1        0.0726
     11 C         144.0236  141.0241  163.7539 C.3     1  UNL1        0.0263
     12 H         145.7440  138.2302  165.7774 H       1  UNL1        0.1494
     13 C         141.2178  143.3865  162.2385 C.3     1  UNL1        0.0861
     14 C         140.7034  143.1051  160.8579 C.3     1  UNL1        0.0187
     15 C         140.0441  144.1955  160.0664 C.3     1  UNL1        0.0016
     16 C         139.8994  145.5674  160.6555 C.3     1  UNL1        0.0028
     17 C         140.4139  145.8488  162.0362 C.3     1  UNL1        0.0325
     18 C         141.0731  144.7583  162.8276 C.3     1  UNL1        0.1202
     19 O         141.1689  145.8876  163.8102 O.3     1  UNL1       -0.3814
     20 H         140.7711  146.6848  163.4264 H       1  UNL1        0.2107
     21 C         141.7655  144.0601  163.9603 C.ar    1  UNL1        0.0031
     22 C         143.2637  144.0552  164.0348 C.ar    1  UNL1        0.0003
     23 C         143.9561  143.3570  165.1675 C.ar    1  UNL1        0.0294
     24 C         143.1503  142.6636  166.2258 C.ar    1  UNL1        0.1401
     25 F         143.6229  141.9963  167.2999 F       1  UNL1       -0.2042
     26 C         141.6522  142.6685  166.1513 C.ar    1  UNL1        0.0294
     27 C         140.9598  143.3667  165.0186 C.ar    1  UNL1        0.0003
     28 C         141.0259  139.0722  165.7753 C.ar    1  UNL1       -0.0204
     29 C         140.4475  139.7723  166.9692 C.ar    1  UNL1       -0.0042
     30 C         138.9723  139.7100  167.2334 C.ar    1  UNL1       -0.0003
     31 C         138.0755  138.9475  166.3037 C.ar    1  UNL1       -0.0000
     32 C         138.6539  138.2474  165.1098 C.ar    1  UNL1       -0.0003
     33 C         140.1290  138.3098  164.8456 C.ar    1  UNL1       -0.0042
@<TRIPOS>BOND
     1     1     2    2
     2     2     3   am
     3     3     4    1
     4     4     5    1
     5     5    28    1
     6    28    29   ar
     7    29    30   ar
     8    30    31   ar
     9    31    32   ar
    10    32    33   ar
    11     5     6    1
    12     6     7    1
    13     7     8    1
    14     8     9    1
    15     9    13    1
    16    13    14    1
    17    14    15    1
    18    15    16    1
    19    16    17    1
    20    17    18    1
    21    18    19    1
    22    18    21    1
    23    21    22   ar
    24    22    23   ar
    25    23    24   ar
    26    24    25    1
    27    24    26   ar
    28    26    27   ar
    29     9    10    1
    30    10    11    1
    31     6     2    1
    32    18    13    1
    33    27    21   ar
    34    33    28   ar
    35    11     6    1
    36     3    12    1
    37    19    20    1
@<TRIPOS>MOLECULE
*****
 33 37 0 0 0
SMALL
GASTEIGER

@<TRIPOS>ATOM
      1 O         137.7999  140.5000  162.9347 O.2     1  UNL1       -0.2751
      2 C         139.1194  140.5541  162.6545 C.2     1  UNL1        0.2220
      3 N         139.5791  140.2554  161.2583 N.am    1  UNL1       -0.3040
      4 C         141.0731  140.3859  161.2243 C.3     1  UNL1        0.0941
      5 C         141.5366  140.7653  162.5996 C.3     1  UNL1        0.0501
      6 C         140.3292  140.8693  163.4835 C.3     1  UNL1        0.0768
      7 C         141.6239  141.1606  164.1826 C.3     1  UNL1        0.0263
      8 C         141.6258  141.5171  165.6396 C.3     1  UNL1        0.0726
      9 N         140.3331  141.5824  166.3975 N.3     1  UNL1       -0.2716
     10 C         139.0383  141.2911  165.6984 C.3     1  UNL1        0.0726
     11 C         139.0364  140.9345  164.2414 C.3     1  UNL1        0.0263
     12 H         139.0017  140.0157  160.4978 H       1  UNL1        0.1494
     13 C         140.3351  141.9389  167.8545 C.3     1  UNL1        0.0861
     14 C         140.2955  143.3784  168.2745 C.3     1  UNL1        0.0187
     15 C         140.2975  143.7349  169.7315 C.3     1  UNL1        0.0016
     16 C         140.3390  142.6520  170.7686 C.3     1  UNL1        0.0028
     17 C         140.3786  141.2124  170.3486 C.3     1  UNL1        0.0325
     18 C         140.3766  140.8560  168.8916 C.3     1  UNL1        0.1202
     19 O         140.4231  139.4837  169.4954 O.3     1  UNL1       -0.3814
     20 H         140.4293  139.5560  170.4627 H       1  UNL1        0.2107
     21 C         140.3908  140.0229  167.6443 C.ar    1  UNL1        0.0031
     22 C         139.0999  139.5572  167.0386 C.ar    1  UNL1        0.0003
     23 C         139.1140  138.7241  165.7913 C.ar    1  UNL1        0.0294
     24 C         140.4192  138.3567  165.1496 C.ar    1  UNL1        0.1401
     25 F         140.5962  137.6188  164.0332 F       1  UNL1       -0.2042
     26 C         141.7100  138.8224  165.7553 C.ar    1  UNL1        0.0294
     27 C         141.6959  139.6555  167.0026 C.ar    1  UNL1        0.0003
     28 C         142.9580  140.9997  163.0176 C.ar    1  UNL1       -0.0204
     29 C         143.7974  139.8529  163.4976 C.ar    1  UNL1       -0.0042
     30 C         145.2188  140.0872  163.9155 C.ar    1  UNL1       -0.0003
     31 C         145.8009  141.4683  163.8534 C.ar    1  UNL1       -0.0000
     32 C         144.9615  142.6151  163.3733 C.ar    1  UNL1       -0.0003
     33 C         143.5401  142.3807  162.9554 C.ar    1  UNL1       -0.0042
@<TRIPOS>BOND
     1     1     2    2
     2     2     3   am
     3     3     4    1
     4     4     5    1
     5     5    28    1
     6    28    29   ar
     7    29    30   ar
     8    30    31   ar
     9    31    32   ar
    10    32    33   ar
    11     5     6    1
    12     6     7    1
    13     7     8    1
    14     8     9    1
    15     9    13    1
    16    13    14    1
    17    14    15    1
    18    15    16    1
    19    16    17    1
    20    17    18    1
    21    18    19    1
    22    18    21    1
    23    21    22   ar
    24    22    23   ar
    25    23    24   ar
    26    24    25    1
    27    24    26   ar
    28    26    27   ar
    29     9    10    1
    30    10    11    1
    31     6     2    1
    32    18    13    1
    33    27    21   ar
    34    33    28   ar
    35    11     6    1
    36     3    12    1
    37    19    20    1
@<TRIPOS>MOLECULE
*****
 33 37 0 0 0
SMALL
GASTEIGER

@<TRIPOS>ATOM
      1 O         141.5476  137.4392  162.7032 O.2     1  UNL1       -0.2751
      2 C         141.6306  138.7575  162.4248 C.2     1  UNL1        0.2220
      3 N         141.9063  139.1870  161.0144 N.am    1  UNL1       -0.3040
      4 C         141.9464  140.6863  160.9858 C.3     1  UNL1        0.0941
      5 C         141.6954  141.1833  162.3787 C.3     1  UNL1        0.0501
      6 C         141.5002  139.9913  163.2681 C.3     1  UNL1        0.0768
      7 C         141.3965  141.3074  163.9802 C.3     1  UNL1        0.0263
      8 C         141.1196  141.3428  165.4539 C.3     1  UNL1        0.0726
      9 N         140.9464  140.0622  166.2156 N.3     1  UNL1       -0.2716
     10 C         141.0501  138.7462  165.5035 C.3     1  UNL1        0.0726
     11 C         141.3271  138.7107  164.0297 C.3     1  UNL1        0.0263
     12 H         142.0379  138.5898  160.2428 H       1  UNL1        0.1494
     13 C         140.6695  140.0978  167.6894 C.3     1  UNL1        0.0861
     14 C         139.2545  140.1332  168.1860 C.3     1  UNL1        0.0187
     15 C         138.9776  140.1687  169.6599 C.3     1  UNL1        0.0016
     16 C         140.1157  140.1688  170.6370 C.3     1  UNL1        0.0028
     17 C         141.5307  140.1334  170.1403 C.3     1  UNL1        0.0325
     18 C         141.8075  140.0979  168.6666 C.3     1  UNL1        0.1202
     19 O         143.2110  140.0840  169.1956 O.3     1  UNL1       -0.3814
     20 H         143.1913  140.1045  170.1652 H       1  UNL1        0.2107
     21 C         142.5718  140.0576  167.3765 C.ar    1  UNL1        0.0031
     22 C         142.9725  141.3359  166.7017 C.ar    1  UNL1        0.0003
     23 C         143.7367  141.2955  165.4117 C.ar    1  UNL1        0.0294
     24 C         144.1005  139.9767  164.7964 C.ar    1  UNL1        0.1401
     25 F         144.7808  139.7762  163.6478 F       1  UNL1       -0.2042
     26 C         143.6998  138.6984  165.4712 C.ar    1  UNL1        0.0294
     27 C         142.9355  138.7388  166.7612 C.ar    1  UNL1        0.0003
     28 C         141.6480  142.6201  162.8069 C.ar    1  UNL1       -0.0204
     29 C         140.3283  143.3217  162.9338 C.ar    1  UNL1       -0.0042
     30 C         140.2808  144.7584  163.3621 C.ar    1  UNL1       -0.0003
     31 C         141.5531  145.4937  163.6634 C.ar    1  UNL1       -0.0000
     32 C         142.8729  144.7920  163.5364 C.ar    1  UNL1       -0.0003
     33 C         142.9203  143.3553  163.1082 C.ar    1  UNL1       -0.0042
@<TRIPOS>BOND
     1     1     2    2
     2     2     3   am
     3     3     4    1
     4     4     5    1
     5     5    28    1
     6    28    29   ar
     7    29    30   ar
     8    30    31   ar
     9    31    32   ar
    10    32    33   ar
    11     5     6    1
    12     6     7    1
    13     7     8    1
    14     8     9    1
    15     9    13    1
    16    13    14    1
    17    14    15    1
    18    15    16    1
    19    16    17    1
    20    17    18    1
    21    18    19    1
    22    18    21    1
    23    21    22   ar
    24    22    23   ar
    25    23    24   ar
    26    24    25    1
    27    24    26   ar
    28    26    27   ar
    29     9    10    1
    30    10    11    1
    31     6     2    1
    32    18    13    1
    33    27    21   ar
    34    33    28   ar
    35    11     6    1
    36     3    12    1
    37    19    20    1
@<TRIPOS>MOLECULE
*****
 33 37 0 0 0
SMALL
GASTEIGER

@<TRIPOS>ATOM
      1 O         138.6984  138.7217  166.3283 O.2     1  UNL1       -0.2751
      2 C         139.4817  139.8176  166.4169 C.2     1  UNL1        0.2220
      3 N         139.5095  140.5896  167.7026 N.am    1  UNL1       -0.3040
      4 C         140.4499  141.7453  167.5292 C.3     1  UNL1        0.0941
      5 C         141.0034  141.6875  166.1362 C.3     1  UNL1        0.0501
      6 C         140.4051  140.4961  165.4487 C.3     1  UNL1        0.0768
      7 C         141.3577  141.2787  164.5944 C.3     1  UNL1        0.0263
      8 C         141.6340  140.8424  163.1862 C.3     1  UNL1        0.0726
      9 N         140.9578  139.6234  162.6323 N.3     1  UNL1       -0.2716
     10 C         140.0052  138.8408  163.4866 C.3     1  UNL1        0.0726
     11 C         139.7288  139.2771  164.8948 C.3     1  UNL1        0.0263
     12 H         138.9999  140.3755  168.5173 H       1  UNL1        0.1494
     13 C         141.2343  139.1871  161.2239 C.3     1  UNL1        0.0861
     14 C         140.4193  139.7417  160.0933 C.3     1  UNL1        0.0187
     15 C         140.6958  139.3054  158.6850 C.3     1  UNL1        0.0016
     16 C         141.7872  138.3145  158.4074 C.3     1  UNL1        0.0028
     17 C         142.6021  137.7600  159.5381 C.3     1  UNL1        0.0325
     18 C         142.3257  138.1963  160.9463 C.3     1  UNL1        0.1202
     19 O         143.4576  137.2419  161.1868 O.3     1  UNL1       -0.3814
     20 H         143.7510  136.8686  160.3410 H       1  UNL1        0.2107
     21 C         142.4423  138.3011  162.4381 C.ar    1  UNL1        0.0031
     22 C         141.6130  137.4149  163.3194 C.ar    1  UNL1        0.0003
     23 C         141.7296  137.5198  164.8112 C.ar    1  UNL1        0.0294
     24 C         142.6757  138.5109  165.4217 C.ar    1  UNL1        0.1401
     25 F         142.8923  138.7235  166.7371 F       1  UNL1       -0.2042
     26 C         143.5050  139.3972  164.5403 C.ar    1  UNL1        0.0294
     27 C         143.3883  139.2923  163.0486 C.ar    1  UNL1        0.0003
     28 C         141.9832  142.6518  165.5360 C.ar    1  UNL1       -0.0204
     29 C         143.4471  142.5162  165.8337 C.ar    1  UNL1       -0.0042
     30 C         144.4269  143.4804  165.2335 C.ar    1  UNL1       -0.0003
     31 C         143.9428  144.5803  164.3357 C.ar    1  UNL1       -0.0000
     32 C         142.4788  144.7159  164.0381 C.ar    1  UNL1       -0.0003
     33 C         141.4991  143.7516  164.6383 C.ar    1  UNL1       -0.0042
@<TRIPOS>BOND
     1     1     2    2
     2     2     3   am
     3     3     4    1
     4     4     5    1
     5     5    28    1
     6    28    29   ar
     7    29    30   ar
     8    30    31   ar
     9    31    32   ar
    10    32    33   ar
    11     5     6    1
    12     6     7    1
    13     7     8    1
    14     8     9    1
    15     9    13    1
    16    13    14    1
    17    14    15    1
    18    15    16    1
    19    16    17    1
    20    17    18    1
    21    18    19    1
    22    18    21    1
    23    21    22   ar
    24    22    23   ar
    25    23    24   ar
    26    24    25    1
    27    24    26   ar
    28    26    27   ar
    29     9    10    1
    30    10    11    1
    31     6     2    1
    32    18    13    1
    33    27    21   ar
    34    33    28   ar
    35    11     6    1
    36     3    12    1
    37    19    20    1
@<TRIPOS>MOLECULE
*****
 33 37 0 0 0
SMALL
GASTEIGER

@<TRIPOS>ATOM
      1 O         143.7358  138.7855  164.4439 O.2     1  UNL1       -0.2751
      2 C         143.2970  139.1191  165.6762 C.2     1  UNL1        0.2220
      3 N         143.6934  138.2663  166.8448 N.am    1  UNL1       -0.3040
      4 C         143.0767  138.8554  168.0789 C.3     1  UNL1        0.0941
      5 C         142.2992  140.0723  167.6729 C.3     1  UNL1        0.0501
      6 C         142.4354  140.2353  166.1879 C.3     1  UNL1        0.0768
      7 C         141.5928  141.2894  166.8427 C.3     1  UNL1        0.0263
      8 C         140.9757  142.3775  166.0149 C.3     1  UNL1        0.0726
      9 N         141.2012  142.4113  164.5323 N.3     1  UNL1       -0.2716
     10 C         142.0438  141.3572  163.8776 C.3     1  UNL1        0.0726
     11 C         142.6609  140.2691  164.7054 C.3     1  UNL1        0.0263
     12 H         144.2589  137.4613  166.8083 H       1  UNL1        0.1494
     13 C         140.5841  143.4995  163.7045 C.3     1  UNL1        0.0861
     14 C         141.3150  144.7934  163.5014 C.3     1  UNL1        0.0187
     15 C         140.6979  145.8816  162.6736 C.3     1  UNL1        0.0016
     16 C         139.3498  145.6756  162.0489 C.3     1  UNL1        0.0028
     17 C         138.6188  144.3816  162.2520 C.3     1  UNL1        0.0325
     18 C         139.2360  143.2935  163.0798 C.3     1  UNL1        0.1202
     19 O         137.9467  142.6296  162.6964 O.3     1  UNL1       -0.3814
     20 H         137.4253  143.2314  162.1425 H       1  UNL1        0.2107
     21 C         139.4054  141.9749  163.7745 C.ar    1  UNL1        0.0031
     22 C         138.9133  141.7991  165.1805 C.ar    1  UNL1        0.0003
     23 C         139.0827  140.4805  165.8751 C.ar    1  UNL1        0.0294
     24 C         139.7442  139.3376  165.1637 C.ar    1  UNL1        0.1401
     25 F         139.9686  138.0984  165.6500 F       1  UNL1       -0.2042
     26 C         140.2363  139.5133  163.7577 C.ar    1  UNL1        0.0294
     27 C         140.0669  140.8320  163.0630 C.ar    1  UNL1        0.0003
     28 C         141.5220  140.9687  168.5906 C.ar    1  UNL1       -0.0204
     29 C         140.1522  140.5657  169.0500 C.ar    1  UNL1       -0.0042
     30 C         139.3750  141.4622  169.9678 C.ar    1  UNL1       -0.0003
     31 C         139.9677  142.7617  170.4262 C.ar    1  UNL1       -0.0000
     32 C         141.3376  143.1647  169.9667 C.ar    1  UNL1       -0.0003
     33 C         142.1147  142.2682  169.0490 C.ar    1  UNL1       -0.0042
@<TRIPOS>BOND
     1     1     2    2
     2     2     3   am
     3     3     4    1
     4     4     5    1
     5     5    28    1
     6    28    29   ar
     7    29    30   ar
     8    30    31   ar
     9    31    32   ar
    10    32    33   ar
    11     5     6    1
    12     6     7    1
    13     7     8    1
    14     8     9    1
    15     9    13    1
    16    13    14    1
    17    14    15    1
    18    15    16    1
    19    16    17    1
    20    17    18    1
    21    18    19    1
    22    18    21    1
    23    21    22   ar
    24    22    23   ar
    25    23    24   ar
    26    24    25    1
    27    24    26   ar
    28    26    27   ar
    29     9    10    1
    30    10    11    1
    31     6     2    1
    32    18    13    1
    33    27    21   ar
    34    33    28   ar
    35    11     6    1
    36     3    12    1
    37    19    20    1
@<TRIPOS>MOLECULE
*****
 33 37 0 0 0
SMALL
GASTEIGER

@<TRIPOS>ATOM
      1 O         138.3813  139.4485  166.9696 O.2     1  UNL1       -0.2751
      2 C         139.6794  139.8119  166.8967 C.2     1  UNL1        0.2220
      3 N         140.4903  139.8695  168.1573 N.am    1  UNL1       -0.3040
      4 C         141.8819  140.2960  167.7942 C.3     1  UNL1        0.0941
      5 C         141.9309  140.5020  166.3091 C.3     1  UNL1        0.0501
      6 C         140.5697  140.2028  165.7544 C.3     1  UNL1        0.0768
      7 C         141.5745  140.6112  164.7183 C.3     1  UNL1        0.0263
      8 C         141.1739  140.6892  163.2749 C.3     1  UNL1        0.0726
      9 N         139.7685  140.3589  162.8677 N.3     1  UNL1       -0.2716
     10 C         138.7637  139.9505  163.9038 C.3     1  UNL1        0.0726
     11 C         139.1643  139.8725  165.3472 C.3     1  UNL1        0.0263
     12 H         140.1662  139.6635  169.0638 H       1  UNL1        0.1494
     13 C         139.3680  140.4370  161.4242 C.3     1  UNL1        0.0861
     14 C         139.5483  139.2460  160.5304 C.3     1  UNL1        0.0187
     15 C         139.1477  139.3240  159.0869 C.3     1  UNL1        0.0016
     16 C         138.5669  140.5931  158.5373 C.3     1  UNL1        0.0028
     17 C         138.3866  141.7841  159.4313 C.3     1  UNL1        0.0325
     18 C         138.7871  141.7060  160.8746 C.3     1  UNL1        0.1202
     19 O         138.2848  143.1184  160.8198 O.3     1  UNL1       -0.3814
     20 H         137.9826  143.3194  159.9203 H       1  UNL1        0.2107
     21 C         139.0132  142.1184  162.2990 C.ar    1  UNL1        0.0031
     22 C         137.9339  141.9122  163.3200 C.ar    1  UNL1        0.0003
     23 C         138.1600  142.3246  164.7443 C.ar    1  UNL1        0.0294
     24 C         139.4656  142.9433  165.1478 C.ar    1  UNL1        0.1401
     25 F         139.8186  143.3639  166.3810 F       1  UNL1       -0.2042
     26 C         140.5449  143.1495  164.1268 C.ar    1  UNL1        0.0294
     27 C         140.3188  142.7371  162.7024 C.ar    1  UNL1        0.0003
     28 C         143.1305  140.9317  165.5178 C.ar    1  UNL1       -0.0204
     29 C         143.9839  139.9058  164.8328 C.ar    1  UNL1       -0.0042
     30 C         145.1835  140.3356  164.0415 C.ar    1  UNL1       -0.0003
     31 C         145.5297  141.7912  163.9351 C.ar    1  UNL1       -0.0000
     32 C         144.6762  142.8171  164.6201 C.ar    1  UNL1       -0.0003
     33 C         143.4767  142.3874  165.4114 C.ar    1  UNL1       -0.0042
@<TRIPOS>BOND
     1     1     2    2
     2     2     3   am
     3     3     4    1
     4     4     5    1
     5     5    28    1
     6    28    29   ar
     7    29    30   ar
     8    30    31   ar
     9    31    32   ar
    10    32    33   ar
    11     5     6    1
    12     6     7    1
    13     7     8    1
    14     8     9    1
    15     9    13    1
    16    13    14    1
    17    14    15    1
    18    15    16    1
    19    16    17    1
    20    17    18    1
    21    18    19    1
    22    18    21    1
    23    21    22   ar
    24    22    23   ar
    25    23    24   ar
    26    24    25    1
    27    24    26   ar
    28    26    27   ar
    29     9    10    1
    30    10    11    1
    31     6     2    1
    32    18    13    1
    33    27    21   ar
    34    33    28   ar
    35    11     6    1
    36     3    12    1
    37    19    20    1
@<TRIPOS>MOLECULE
*****
 33 37 0 0 0
SMALL
GASTEIGER

@<TRIPOS>ATOM
      1 O         138.0848  137.2711  162.5672 O.2     1  UNL1       -0.2751
      2 C         138.1631  138.5791  162.2425 C.2     1  UNL1        0.2220
      3 N         137.6669  139.0258  160.8992 N.am    1  UNL1       -0.3040
      4 C         137.8698  140.5087  160.7998 C.3     1  UNL1        0.0941
      5 C         138.4913  140.9785  162.0817 C.3     1  UNL1        0.0501
      6 C         138.6725  139.7859  162.9733 C.3     1  UNL1        0.0768
      7 C         139.1420  141.0762  163.5773 C.3     1  UNL1        0.0263
      8 C         139.7295  141.0883  164.9573 C.3     1  UNL1        0.0726
      9 N         139.8476  139.8101  165.7334 N.3     1  UNL1       -0.2716
     10 C         139.3782  138.5198  165.1295 C.3     1  UNL1        0.0726
     11 C         138.7907  138.5077  163.7494 C.3     1  UNL1        0.0263
     12 H         137.2767  138.4472  160.2048 H       1  UNL1        0.1494
     13 C         140.4352  139.8222  167.1136 C.3     1  UNL1        0.0861
     14 C         139.5563  140.0833  168.3006 C.3     1  UNL1        0.0187
     15 C         140.1438  140.0955  169.6808 C.3     1  UNL1        0.0016
     16 C         141.6104  139.8465  169.8737 C.3     1  UNL1        0.0028
     17 C         142.4894  139.5854  168.6865 C.3     1  UNL1        0.0325
     18 C         141.9018  139.5733  167.3065 C.3     1  UNL1        0.1202
     19 O         143.3374  139.2854  166.9808 O.3     1  UNL1       -0.3814
     20 H         143.8563  139.2618  167.8000 H       1  UNL1        0.2107
     21 C         141.8128  139.4612  165.8134 C.ar    1  UNL1        0.0031
     22 C         141.5444  138.1303  165.1758 C.ar    1  UNL1        0.0003
     23 C         141.4553  138.0181  163.6826 C.ar    1  UNL1        0.0294
     24 C         141.6347  139.2371  162.8270 C.ar    1  UNL1        0.1401
     25 F         141.5836  139.2985  161.4794 F       1  UNL1       -0.2042
     26 C         141.9031  140.5680  163.4646 C.ar    1  UNL1        0.0294
     27 C         141.9922  140.6801  164.9577 C.ar    1  UNL1        0.0003
     28 C         138.8657  142.3925  162.4137 C.ar    1  UNL1       -0.0204
     29 C         137.9314  143.2466  163.2184 C.ar    1  UNL1       -0.0042
     30 C         138.3059  144.6607  163.5504 C.ar    1  UNL1       -0.0003
     31 C         139.6147  145.2207  163.0776 C.ar    1  UNL1       -0.0000
     32 C         140.5490  144.3665  162.2728 C.ar    1  UNL1       -0.0003
     33 C         140.1745  142.9525  161.9409 C.ar    1  UNL1       -0.0042
@<TRIPOS>BOND
     1     1     2    2
     2     2     3   am
     3     3     4    1
     4     4     5    1
     5     5    28    1
     6    28    29   ar
     7    29    30   ar
     8    30    31   ar
     9    31    32   ar
    10    32    33   ar
    11     5     6    1
    12     6     7    1
    13     7     8    1
    14     8     9    1
    15     9    13    1
    16    13    14    1
    17    14    15    1
    18    15    16    1
    19    16    17    1
    20    17    18    1
    21    18    19    1
    22    18    21    1
    23    21    22   ar
    24    22    23   ar
    25    23    24   ar
    26    24    25    1
    27    24    26   ar
    28    26    27   ar
    29     9    10    1
    30    10    11    1
    31     6     2    1
    32    18    13    1
    33    27    21   ar
    34    33    28   ar
    35    11     6    1
    36     3    12    1
    37    19    20    1
@<TRIPOS>MOLECULE
*****
 33 37 0 0 0
SMALL
GASTEIGER

@<TRIPOS>ATOM
      1 O         138.2107  145.1325  162.4667 O.2     1  UNL1       -0.2751
      2 C         139.4593  144.7362  162.1403 C.2     1  UNL1        0.2220
      3 N         140.0453  145.1820  160.8334 N.am    1  UNL1       -0.3040
      4 C         141.4260  144.6060  160.7241 C.3     1  UNL1        0.0941
      5 C         141.6933  143.8042  161.9634 C.3     1  UNL1        0.0501
      6 C         140.4778  143.8847  162.8387 C.3     1  UNL1        0.0768
      7 C         141.5897  143.0580  163.4133 C.3     1  UNL1        0.0263
      8 C         141.4221  142.4022  164.7518 C.3     1  UNL1        0.0726
      9 N         140.1426  142.5731  165.5158 N.3     1  UNL1       -0.2716
     10 C         139.0307  143.3998  164.9412 C.3     1  UNL1        0.0726
     11 C         139.1983  144.0556  163.6027 C.3     1  UNL1        0.0263
     12 H         139.6016  145.7524  160.1649 H       1  UNL1        0.1494
     13 C         139.9750  141.9172  166.8544 C.3     1  UNL1        0.0861
     14 C         140.3898  142.6406  168.1012 C.3     1  UNL1        0.0187
     15 C         140.2223  141.9848  169.4398 C.3     1  UNL1        0.0016
     16 C         139.6398  140.6055  169.5316 C.3     1  UNL1        0.0028
     17 C         139.2249  139.8821  168.2847 C.3     1  UNL1        0.0325
     18 C         139.3925  140.5380  166.9461 C.3     1  UNL1        0.1202
     19 O         138.7964  139.2286  166.5217 O.3     1  UNL1       -0.3814
     20 H         138.6282  138.6811  167.3046 H       1  UNL1        0.2107
     21 C         139.3531  140.7391  165.4602 C.ar    1  UNL1        0.0031
     22 C         138.1497  141.3649  164.8197 C.ar    1  UNL1        0.0003
     23 C         138.1103  141.5661  163.3338 C.ar    1  UNL1        0.0294
     24 C         139.2743  141.1414  162.4883 C.ar    1  UNL1        0.1401
     25 F         139.3890  141.2545  161.1480 F       1  UNL1       -0.2042
     26 C         140.4776  140.5156  163.1288 C.ar    1  UNL1        0.0294
     27 C         140.5171  140.3144  164.6147 C.ar    1  UNL1        0.0003
     28 C         142.9546  143.0538  162.2731 C.ar    1  UNL1       -0.0204
     29 C         143.9570  143.6331  163.2269 C.ar    1  UNL1       -0.0042
     30 C         145.2183  142.8826  163.5365 C.ar    1  UNL1       -0.0003
     31 C         145.4773  141.5529  162.8924 C.ar    1  UNL1       -0.0000
     32 C         144.4748  140.9737  161.9386 C.ar    1  UNL1       -0.0003
     33 C         143.2136  141.7241  161.6290 C.ar    1  UNL1       -0.0042
@<TRIPOS>BOND
     1     1     2    2
     2     2     3   am
     3     3     4    1
     4     4     5    1
     5     5    28    1
     6    28    29   ar
     7    29    30   ar
     8    30    31   ar
     9    31    32   ar
    10    32    33   ar
    11     5     6    1
    12     6     7    1
    13     7     8    1
    14     8     9    1
    15     9    13    1
    16    13    14    1
    17    14    15    1
    18    15    16    1
    19    16    17    1
    20    17    18    1
    21    18    19    1
    22    18    21    1
    23    21    22   ar
    24    22    23   ar
    25    23    24   ar
    26    24    25    1
    27    24    26   ar
    28    26    27   ar
    29     9    10    1
    30    10    11    1
    31     6     2    1
    32    18    13    1
    33    27    21   ar
    34    33    28   ar
    35    11     6    1
    36     3    12    1
    37    19    20    1
@<TRIPOS>MOLECULE
*****
 33 37 0 0 0
SMALL
GASTEIGER

@<TRIPOS>ATOM
      1 O         138.3063  139.3764  166.7769 O.2     1  UNL1       -0.2751
      2 C         139.6262  139.6525  166.7146 C.2     1  UNL1        0.2220
      3 N         140.4543  139.5302  167.9593 N.am    1  UNL1       -0.3040
      4 C         141.8685  139.8906  167.6124 C.3     1  UNL1        0.0941
      5 C         141.9143  140.2357  166.1533 C.3     1  UNL1        0.0501
      6 C         140.5285  140.0885  165.5984 C.3     1  UNL1        0.0768
      7 C         141.5476  140.5235  164.5873 C.3     1  UNL1        0.0263
      8 C         141.1363  140.7692  163.1659 C.3     1  UNL1        0.0726
      9 N         139.7059  140.5799  162.7556 N.3     1  UNL1       -0.2716
     10 C         138.6869  140.1450  163.7667 C.3     1  UNL1        0.0726
     11 C         139.0982  139.8993  165.1881 C.3     1  UNL1        0.0263
     12 H         140.1271  139.2607  168.8478 H       1  UNL1        0.1494
     13 C         139.2947  140.8256  161.3341 C.3     1  UNL1        0.0861
     14 C         138.8862  142.2017  160.8987 C.3     1  UNL1        0.0187
     15 C         138.4749  142.4474  159.4772 C.3     1  UNL1        0.0016
     16 C         138.4722  141.3170  158.4912 C.3     1  UNL1        0.0028
     17 C         138.8807  139.9409  158.9266 C.3     1  UNL1        0.0325
     18 C         139.2919  139.6953  160.3481 C.3     1  UNL1        0.1202
     19 O         139.4512  138.3128  159.7882 O.3     1  UNL1       -0.3814
     20 H         139.2139  138.3155  158.8477 H       1  UNL1        0.2107
     21 C         139.7585  138.9695  161.5751 C.ar    1  UNL1        0.0031
     22 C         138.7582  138.3578  162.5106 C.ar    1  UNL1        0.0003
     23 C         139.2248  137.6321  163.7376 C.ar    1  UNL1        0.0294
     24 C         140.6918  137.5179  164.0291 C.ar    1  UNL1        0.1401
     25 F         141.2648  136.9012  165.0844 F       1  UNL1       -0.2042
     26 C         141.6921  138.1296  163.0936 C.ar    1  UNL1        0.0294
     27 C         141.2255  138.8554  161.8666 C.ar    1  UNL1        0.0003
     28 C         143.1322  140.6544  165.3841 C.ar    1  UNL1       -0.0204
     29 C         143.4750  142.1090  165.2561 C.ar    1  UNL1       -0.0042
     30 C         144.6928  142.5277  164.4870 C.ar    1  UNL1       -0.0003
     31 C         145.5679  141.4917  163.8459 C.ar    1  UNL1       -0.0000
     32 C         145.2250  140.0369  163.9739 C.ar    1  UNL1       -0.0003
     33 C         144.0072  139.6184  164.7430 C.ar    1  UNL1       -0.0042
@<TRIPOS>BOND
     1     1     2    2
     2     2     3   am
     3     3     4    1
     4     4     5    1
     5     5    28    1
     6    28    29   ar
     7    29    30   ar
     8    30    31   ar
     9    31    32   ar
    10    32    33   ar
    11     5     6    1
    12     6     7    1
    13     7     8    1
    14     8     9    1
    15     9    13    1
    16    13    14    1
    17    14    15    1
    18    15    16    1
    19    16    17    1
    20    17    18    1
    21    18    19    1
    22    18    21    1
    23    21    22   ar
    24    22    23   ar
    25    23    24   ar
    26    24    25    1
    27    24    26   ar
    28    26    27   ar
    29     9    10    1
    30    10    11    1
    31     6     2    1
    32    18    13    1
    33    27    21   ar
    34    33    28   ar
    35    11     6    1
    36     3    12    1
    37    19    20    1
