@<TRIPOS>MOLECULE
*****
 14 16 0 0 0
SMALL
GASTEIGER

@<TRIPOS>ATOM
      1 C         137.5157  141.4001  163.4472 C.3     1  UNL1        0.0310
      2 C         138.2979  141.0653  164.6826 C.ar    1  UNL1       -0.0219
      3 C         138.1219  139.7300  165.3428 C.ar    1  UNL1       -0.0046
      4 C         138.9040  139.3952  166.5782 C.ar    1  UNL1       -0.0046
      5 C         139.8622  140.3956  167.1533 C.ar    1  UNL1       -0.0215
      6 C         140.0382  141.7309  166.4931 C.ar    1  UNL1       -0.0046
      7 C         139.2561  142.0658  165.2577 C.ar    1  UNL1       -0.0046
      8 C         140.6444  140.0608  168.3887 C.3     1  UNL1        0.0347
      9 C         141.9053  139.6720  167.6753 C.3     1  UNL1        0.0726
     10 N         142.9170  139.2706  168.7075 N.3     1  UNL1       -0.2972
     11 C         142.2812  139.4113  170.0589 C.3     1  UNL1        0.0689
     12 C         140.8767  139.8997  169.8618 C.3     1  UNL1        0.0211
     13 C         139.5470  140.3796  169.3603 C.3     1  UNL1        0.0072
     14 H         143.7348  139.8770  168.6449 H       1  UNL1        0.1233
@<TRIPOS>BOND
     1     1     2    1
     2     2     3   ar
     3     3     4   ar
     4     4     5   ar
     5     5     8    1
     6     8     9    1
     7     9    10    1
     8    10    11    1
     9    11    12    1
    10    12    13    1
    11     5     6   ar
    12     6     7   ar
    13     7     2   ar
    14    12     8    1
    15    13     8    1
    16    10    14    1
@<TRIPOS>MOLECULE
*****
 14 16 0 0 0
SMALL
GASTEIGER

@<TRIPOS>ATOM
      1 C         140.5327  143.7793  169.9009 C.3     1  UNL1        0.0310
      2 C         140.2894  142.6437  168.9515 C.ar    1  UNL1       -0.0219
      3 C         139.9100  141.2922  169.4803 C.ar    1  UNL1       -0.0046
      4 C         139.6667  140.1566  168.5310 C.ar    1  UNL1       -0.0046
      5 C         139.8027  140.3724  167.0529 C.ar    1  UNL1       -0.0215
      6 C         140.1821  141.7239  166.5241 C.ar    1  UNL1       -0.0046
      7 C         140.4254  142.8595  167.4734 C.ar    1  UNL1       -0.0046
      8 C         139.5594  139.2368  166.1036 C.3     1  UNL1        0.0347
      9 C         140.9983  139.0313  165.7329 C.3     1  UNL1        0.0726
     10 N         141.0665  137.9024  164.7475 N.3     1  UNL1       -0.2972
     11 C         139.6696  137.4102  164.5093 C.3     1  UNL1        0.0689
     12 C         138.7383  138.2349  165.3474 C.3     1  UNL1        0.0211
     13 C         138.0697  139.2049  166.2759 C.3     1  UNL1        0.0072
     14 H         141.6398  137.1478  165.1248 H       1  UNL1        0.1233
@<TRIPOS>BOND
     1     1     2    1
     2     2     3   ar
     3     3     4   ar
     4     4     5   ar
     5     5     8    1
     6     8     9    1
     7     9    10    1
     8    10    11    1
     9    11    12    1
    10    12    13    1
    11     5     6   ar
    12     6     7   ar
    13     7     2   ar
    14    12     8    1
    15    13     8    1
    16    10    14    1
@<TRIPOS>MOLECULE
*****
 14 16 0 0 0
SMALL
GASTEIGER

@<TRIPOS>ATOM
      1 C         139.9287  140.2940  169.3162 C.3     1  UNL1        0.0310
      2 C         139.5442  140.0391  167.8889 C.ar    1  UNL1       -0.0219
      3 C         138.3533  139.1831  167.5744 C.ar    1  UNL1       -0.0046
      4 C         137.9688  138.9282  166.1471 C.ar    1  UNL1       -0.0046
      5 C         138.7752  139.5293  165.0343 C.ar    1  UNL1       -0.0215
      6 C         139.9661  140.3853  165.3488 C.ar    1  UNL1       -0.0046
      7 C         140.3506  140.6403  166.7761 C.ar    1  UNL1       -0.0046
      8 C         138.3907  139.2744  163.6070 C.3     1  UNL1        0.0347
      9 C         137.7375  140.6056  163.3804 C.3     1  UNL1        0.0726
     10 N         137.2333  140.6401  161.9682 N.3     1  UNL1       -0.2972
     11 C         137.5748  139.3302  161.3219 C.3     1  UNL1        0.0689
     12 C         138.2901  138.4862  162.3348 C.3     1  UNL1        0.0211
     13 C         138.9635  137.8899  163.5352 C.3     1  UNL1        0.0072
     14 H         137.6795  141.4037  161.4599 H       1  UNL1        0.1233
@<TRIPOS>BOND
     1     1     2    1
     2     2     3   ar
     3     3     4   ar
     4     4     5   ar
     5     5     8    1
     6     8     9    1
     7     9    10    1
     8    10    11    1
     9    11    12    1
    10    12    13    1
    11     5     6   ar
    12     6     7   ar
    13     7     2   ar
    14    12     8    1
    15    13     8    1
    16    10    14    1
@<TRIPOS>MOLECULE
*****
 14 16 0 0 0
SMALL
GASTEIGER

@<TRIPOS>ATOM
      1 C         141.0681  137.2314  163.9794 C.3     1  UNL1        0.0310
      2 C         140.8839  138.2514  165.0637 C.ar    1  UNL1       -0.0219
      3 C         142.0665  138.7275  165.8541 C.ar    1  UNL1       -0.0046
      4 C         141.8824  139.7475  166.9384 C.ar    1  UNL1       -0.0046
      5 C         140.5157  140.2914  167.2322 C.ar    1  UNL1       -0.0215
      6 C         139.3332  139.8153  166.4418 C.ar    1  UNL1       -0.0046
      7 C         139.5173  138.7953  165.3575 C.ar    1  UNL1       -0.0046
      8 C         140.3316  141.3115  168.3165 C.3     1  UNL1        0.0347
      9 C         139.8057  140.3542  169.3447 C.3     1  UNL1        0.0726
     10 N         139.5197  141.1295  170.5965 N.3     1  UNL1       -0.2972
     11 C         139.8689  142.5660  170.3420 C.3     1  UNL1        0.0689
     12 C         140.3706  142.6784  168.9329 C.3     1  UNL1        0.0211
     13 C         140.8190  142.4820  167.5150 C.3     1  UNL1        0.0072
     14 H         140.0842  140.7669  171.3648 H       1  UNL1        0.1233
@<TRIPOS>BOND
     1     1     2    1
     2     2     3   ar
     3     3     4   ar
     4     4     5   ar
     5     5     8    1
     6     8     9    1
     7     9    10    1
     8    10    11    1
     9    11    12    1
    10    12    13    1
    11     5     6   ar
    12     6     7   ar
    13     7     2   ar
    14    12     8    1
    15    13     8    1
    16    10    14    1
@<TRIPOS>MOLECULE
*****
 14 16 0 0 0
SMALL
GASTEIGER

@<TRIPOS>ATOM
      1 C         143.9169  142.3712  169.8134 C.3     1  UNL1        0.0310
      2 C         142.8366  142.4224  168.7741 C.ar    1  UNL1       -0.0219
      3 C         143.1539  142.0927  167.3456 C.ar    1  UNL1       -0.0046
      4 C         142.0735  142.1439  166.3063 C.ar    1  UNL1       -0.0046
      5 C         140.6759  142.5248  166.6954 C.ar    1  UNL1       -0.0215
      6 C         140.3586  142.8546  168.1238 C.ar    1  UNL1       -0.0046
      7 C         141.4389  142.8034  169.1632 C.ar    1  UNL1       -0.0046
      8 C         139.5956  142.5760  165.6560 C.3     1  UNL1        0.0347
      9 C         139.1556  141.1511  165.8168 C.3     1  UNL1        0.0726
     10 N         138.0305  140.9021  164.8565 N.3     1  UNL1       -0.2972
     11 C         137.7751  142.1733  164.1022 C.3     1  UNL1        0.0689
     12 C         138.7424  143.2078  164.5963 C.3     1  UNL1        0.0211
     13 C         139.8097  144.0117  165.2779 C.3     1  UNL1        0.0072
     14 H         137.1919  140.6293  165.3691 H       1  UNL1        0.1233
@<TRIPOS>BOND
     1     1     2    1
     2     2     3   ar
     3     3     4   ar
     4     4     5   ar
     5     5     8    1
     6     8     9    1
     7     9    10    1
     8    10    11    1
     9    11    12    1
    10    12    13    1
    11     5     6   ar
    12     6     7   ar
    13     7     2   ar
    14    12     8    1
    15    13     8    1
    16    10    14    1
@<TRIPOS>MOLECULE
*****
 14 16 0 0 0
SMALL
GASTEIGER

@<TRIPOS>ATOM
      1 C         143.3746  143.7637  163.4864 C.3     1  UNL1        0.0310
      2 C         142.6341  143.2764  164.6964 C.ar    1  UNL1       -0.0219
      3 C         143.3656  142.5330  165.7744 C.ar    1  UNL1       -0.0046
      4 C         142.6250  142.0457  166.9844 C.ar    1  UNL1       -0.0046
      5 C         141.1530  142.3018  167.1164 C.ar    1  UNL1       -0.0215
      6 C         140.4215  143.0451  166.0384 C.ar    1  UNL1       -0.0046
      7 C         141.1620  143.5325  164.8283 C.ar    1  UNL1       -0.0046
      8 C         140.4124  141.8144  168.3264 C.3     1  UNL1        0.0347
      9 C         139.9459  140.5259  167.7164 C.3     1  UNL1        0.0726
     10 N         139.1403  139.7905  168.7459 N.3     1  UNL1       -0.2972
     11 C         139.1088  140.6246  169.9923 C.3     1  UNL1        0.0689
     12 C         139.8950  141.8754  169.7330 C.3     1  UNL1        0.0211
     13 C         140.7241  143.0011  169.1894 C.3     1  UNL1        0.0072
     14 H         139.5726  138.8882  168.9441 H       1  UNL1        0.1233
@<TRIPOS>BOND
     1     1     2    1
     2     2     3   ar
     3     3     4   ar
     4     4     5   ar
     5     5     8    1
     6     8     9    1
     7     9    10    1
     8    10    11    1
     9    11    12    1
    10    12    13    1
    11     5     6   ar
    12     6     7   ar
    13     7     2   ar
    14    12     8    1
    15    13     8    1
    16    10    14    1
@<TRIPOS>MOLECULE
*****
 14 16 0 0 0
SMALL
GASTEIGER

@<TRIPOS>ATOM
      1 C         138.9006  140.2786  169.9681 C.3     1  UNL1        0.0310
      2 C         139.9847  140.1452  168.9400 C.ar    1  UNL1       -0.0219
      3 C         139.6416  140.1741  167.4801 C.ar    1  UNL1       -0.0046
      4 C         140.7257  140.0408  166.4520 C.ar    1  UNL1       -0.0046
      5 C         142.1530  139.8786  166.8839 C.ar    1  UNL1       -0.0215
      6 C         142.4961  139.8497  168.3438 C.ar    1  UNL1       -0.0046
      7 C         141.4120  139.9830  169.3718 C.ar    1  UNL1       -0.0046
      8 C         143.2371  139.7452  165.8558 C.3     1  UNL1        0.0347
      9 C         143.3359  141.2086  165.5414 C.3     1  UNL1        0.0726
     10 N         144.3932  141.3870  164.4925 N.3     1  UNL1       -0.2972
     11 C         144.9479  140.0339  164.1587 C.3     1  UNL1        0.0689
     12 C         144.2334  139.0192  165.0012 C.3     1  UNL1        0.0211
     13 C         143.3649  138.2540  165.9553 C.3     1  UNL1        0.0072
     14 H         145.1366  141.9876  164.8491 H       1  UNL1        0.1233
@<TRIPOS>BOND
     1     1     2    1
     2     2     3   ar
     3     3     4   ar
     4     4     5   ar
     5     5     8    1
     6     8     9    1
     7     9    10    1
     8    10    11    1
     9    11    12    1
    10    12    13    1
    11     5     6   ar
    12     6     7   ar
    13     7     2   ar
    14    12     8    1
    15    13     8    1
    16    10    14    1
@<TRIPOS>MOLECULE
*****
 14 16 0 0 0
SMALL
GASTEIGER

@<TRIPOS>ATOM
      1 C         140.0721  143.0234  170.0181 C.3     1  UNL1        0.0310
      2 C         141.0125  142.7770  168.8758 C.ar    1  UNL1       -0.0219
      3 C         140.4942  142.7581  167.4683 C.ar    1  UNL1       -0.0046
      4 C         141.4347  142.5117  166.3260 C.ar    1  UNL1       -0.0046
      5 C         142.8934  142.2842  166.5912 C.ar    1  UNL1       -0.0215
      6 C         143.4117  142.3031  167.9986 C.ar    1  UNL1       -0.0046
      7 C         142.4712  142.5495  169.1409 C.ar    1  UNL1       -0.0046
      8 C         143.8338  142.0378  165.4489 C.3     1  UNL1        0.0347
      9 C         143.5218  140.5780  165.3010 C.3     1  UNL1        0.0726
     10 N         144.3559  140.0372  164.1777 N.3     1  UNL1       -0.2972
     11 C         145.1834  141.1628  163.6313 C.3     1  UNL1        0.0689
     12 C         144.8608  142.3991  164.4170 C.3     1  UNL1        0.0211
     13 C         144.3425  143.4460  165.3579 C.3     1  UNL1        0.0072
     14 H         143.7511  139.6652  163.4454 H       1  UNL1        0.1233
@<TRIPOS>BOND
     1     1     2    1
     2     2     3   ar
     3     3     4   ar
     4     4     5   ar
     5     5     8    1
     6     8     9    1
     7     9    10    1
     8    10    11    1
     9    11    12    1
    10    12    13    1
    11     5     6   ar
    12     6     7   ar
    13     7     2   ar
    14    12     8    1
    15    13     8    1
    16    10    14    1
@<TRIPOS>MOLECULE
*****
 14 16 0 0 0
SMALL
GASTEIGER

@<TRIPOS>ATOM
      1 C         137.4737  141.8604  163.5347 C.3     1  UNL1        0.0310
      2 C         138.4633  142.0058  164.6525 C.ar    1  UNL1       -0.0219
      3 C         138.8461  140.8115  165.4754 C.ar    1  UNL1       -0.0046
      4 C         139.8357  140.9568  166.5932 C.ar    1  UNL1       -0.0046
      5 C         140.4425  142.2965  166.8882 C.ar    1  UNL1       -0.0215
      6 C         140.0597  143.4908  166.0654 C.ar    1  UNL1       -0.0046
      7 C         139.0701  143.3454  164.9476 C.ar    1  UNL1       -0.0046
      8 C         141.4321  142.4418  168.0061 C.3     1  UNL1        0.0347
      9 C         140.4717  143.0441  168.9884 C.3     1  UNL1        0.0726
     10 N         141.2172  143.3091  170.2627 N.3     1  UNL1       -0.2972
     11 C         142.6384  142.8705  170.0680 C.3     1  UNL1        0.0689
     12 C         142.7712  142.3345  168.6734 C.3     1  UNL1        0.0211
     13 C         142.5994  141.8699  167.2575 C.3     1  UNL1        0.0072
     14 H         140.7941  142.7826  171.0271 H       1  UNL1        0.1233
@<TRIPOS>BOND
     1     1     2    1
     2     2     3   ar
     3     3     4   ar
     4     4     5   ar
     5     5     8    1
     6     8     9    1
     7     9    10    1
     8    10    11    1
     9    11    12    1
    10    12    13    1
    11     5     6   ar
    12     6     7   ar
    13     7     2   ar
    14    12     8    1
    15    13     8    1
    16    10    14    1
