@<TRIPOS>MOLECULE
*****
 31 35 0 0 0
SMALL
GASTEIGER

@<TRIPOS>ATOM
      1 C         139.9813  145.7691  161.5464 C.3     1  UNL1        0.0730
      2 C         142.7643  139.9436  170.6889 C.3     1  UNL1        0.0950
      3 C         142.3913  140.7243  169.4636 C.ar    1  UNL1        0.2062
      4 N         141.0654  141.3756  169.2027 N.ar    1  UNL1       -0.2121
      5 C         141.1334  142.0446  167.8620 C.ar    1  UNL1        0.1182
      6 C         140.1264  142.8396  167.0848 C.ar    1  UNL1        0.0178
      7 C         140.4874  143.3969  165.7397 C.ar    1  UNL1       -0.0230
      8 C         141.8552  143.1592  165.1719 C.ar    1  UNL1       -0.0216
      9 C         142.8622  142.3642  165.9491 C.ar    1  UNL1        0.0346
     10 C         142.5013  141.8069  167.2941 C.ar    1  UNL1        0.1640
     11 O         143.2787  140.9909  168.2840 O.2     1  UNL1       -0.4384
     12 C         142.4165  143.6214  163.8599 C.3     1  UNL1        0.0434
     13 C         141.7484  144.4355  162.7916 C.3     1  UNL1        0.0768
     14 N         140.3543  144.9884  162.7717 N.3     1  UNL1       -0.2720
     15 C         139.2837  144.8638  163.8149 C.3     1  UNL1        0.0768
     16 C         139.3429  144.1555  165.1358 C.3     1  UNL1        0.0434
     17 C         140.6340  145.4591  160.2318 C.3     1  UNL1        0.0294
     18 C         140.0202  144.4478  159.3096 C.3     1  UNL1        0.0666
     19 S         140.0872  142.9877  159.6463 S.3     1  UNL1       -0.0756
     20 C         139.2429  142.4343  160.7557 C.ar    1  UNL1        0.1933
     21 N         137.8160  142.7970  161.0428 N.ar    1  UNL1       -0.1220
     22 N         137.3684  142.0080  162.2374 N.ar    1  UNL1       -0.1250
     23 C         138.5187  141.1575  162.6886 C.ar    1  UNL1        0.2029
     24 N         139.6772  141.4210  161.7729 N.ar    1  UNL1       -0.2860
     25 C         141.0321  140.7831  161.8592 C.3     1  UNL1        0.1341
     26 C         138.5117  140.2100  163.8514 C.ar    1  UNL1        0.1964
     27 O         138.3437  140.5855  165.2938 O.2     1  UNL1       -0.4283
     28 C         138.3997  139.3281  166.1098 C.ar    1  UNL1        0.2849
     29 N         138.6023  138.1754  165.1716 N.ar    1  UNL1       -0.2085
     30 C         138.6715  138.7204  163.7758 C.ar    1  UNL1        0.1001
     31 C         138.8664  137.9168  162.5243 C.3     1  UNL1        0.0556
@<TRIPOS>BOND
     1     2     3    1
     2     3     4   ar
     3     4     5   ar
     4     5     6   ar
     5     6     7   ar
     6     7     8   ar
     7     8     9   ar
     8     9    10   ar
     9    10    11   ar
    10     8    12    1
    11    12    13    1
    12    13    14    1
    13    14     1    1
    14     1    17    1
    15    17    18    1
    16    18    19    1
    17    19    20    1
    18    20    21   ar
    19    21    22   ar
    20    22    23   ar
    21    23    26    1
    22    26    27   ar
    23    27    28   ar
    24    28    29   ar
    25    29    30   ar
    26    30    31    1
    27    23    24   ar
    28    24    25    1
    29    14    15    1
    30    15    16    1
    31    11     3   ar
    32    24    20   ar
    33    10     5   ar
    34    30    26   ar
    35    16     7    1
@<TRIPOS>MOLECULE
*****
 31 35 0 0 0
SMALL
GASTEIGER

@<TRIPOS>ATOM
      1 C         140.2359  145.7789  161.3897 C.3     1  UNL1        0.0730
      2 C         142.4204  138.9983  170.0222 C.3     1  UNL1        0.0950
      3 C         142.1276  139.9070  168.8652 C.ar    1  UNL1        0.2062
      4 N         142.8512  139.9228  167.5513 N.ar    1  UNL1       -0.2121
      5 C         142.2306  140.9851  166.6932 C.ar    1  UNL1        0.1182
      6 C         142.5307  141.4517  165.2995 C.ar    1  UNL1        0.0178
      7 C         141.7235  142.5591  164.6893 C.ar    1  UNL1       -0.0230
      8 C         140.6165  143.1998  165.4727 C.ar    1  UNL1       -0.0216
      9 C         140.3165  142.7332  166.8664 C.ar    1  UNL1        0.0346
     10 C         141.1235  141.6258  167.4766 C.ar    1  UNL1        0.1640
     11 O         141.0599  140.9596  168.8190 O.2     1  UNL1       -0.4384
     12 C         139.6973  144.3098  165.0567 C.3     1  UNL1        0.0434
     13 C         139.6583  145.0532  163.7544 C.3     1  UNL1        0.0768
     14 N         140.5287  144.8702  162.5466 N.3     1  UNL1       -0.2720
     15 C         141.6532  143.8986  162.3427 C.3     1  UNL1        0.0768
     16 C         142.1849  142.8700  163.2963 C.3     1  UNL1        0.0434
     17 C         140.8783  145.5280  160.0575 C.3     1  UNL1        0.0294
     18 C         140.0906  144.8863  158.9540 C.3     1  UNL1        0.0666
     19 S         139.9883  143.3919  158.8766 S.3     1  UNL1       -0.0756
     20 C         139.3039  142.6292  159.9720 C.ar    1  UNL1        0.1933
     21 N         138.0248  143.0192  160.6516 N.ar    1  UNL1       -0.1220
     22 N         137.7088  141.9737  161.6798 N.ar    1  UNL1       -0.1250
     23 C         138.7926  140.9376  161.6356 C.ar    1  UNL1        0.2029
     24 N         139.7784  141.3428  160.5801 N.ar    1  UNL1       -0.2860
     25 C         141.0207  140.5930  160.1996 C.3     1  UNL1        0.1341
     26 C         138.8759  139.7117  162.4959 C.ar    1  UNL1        0.1964
     27 O         139.3020  138.3459  162.0455 O.2     1  UNL1       -0.4283
     28 C         139.2373  137.4263  163.2289 C.ar    1  UNL1        0.2849
     29 N         138.7711  138.2239  164.4106 N.ar    1  UNL1       -0.2085
     30 C         138.5478  139.6363  163.9576 C.ar    1  UNL1        0.1001
     31 C         138.0787  140.7737  164.8158 C.3     1  UNL1        0.0556
@<TRIPOS>BOND
     1     2     3    1
     2     3     4   ar
     3     4     5   ar
     4     5     6   ar
     5     6     7   ar
     6     7     8   ar
     7     8     9   ar
     8     9    10   ar
     9    10    11   ar
    10     8    12    1
    11    12    13    1
    12    13    14    1
    13    14     1    1
    14     1    17    1
    15    17    18    1
    16    18    19    1
    17    19    20    1
    18    20    21   ar
    19    21    22   ar
    20    22    23   ar
    21    23    26    1
    22    26    27   ar
    23    27    28   ar
    24    28    29   ar
    25    29    30   ar
    26    30    31    1
    27    23    24   ar
    28    24    25    1
    29    14    15    1
    30    15    16    1
    31    11     3   ar
    32    24    20   ar
    33    10     5   ar
    34    30    26   ar
    35    16     7    1
@<TRIPOS>MOLECULE
*****
 31 35 0 0 0
SMALL
GASTEIGER

@<TRIPOS>ATOM
      1 C         139.4405  138.5222  159.4852 C.3     1  UNL1        0.0730
      2 C         139.7937  141.2793  170.3268 C.3     1  UNL1        0.0950
      3 C         139.7464  140.9098  168.8738 C.ar    1  UNL1        0.2062
      4 N         139.1493  139.6585  168.3012 N.ar    1  UNL1       -0.2121
      5 C         139.3217  139.7021  166.8119 C.ar    1  UNL1        0.1182
      6 C         138.9289  138.7429  165.7275 C.ar    1  UNL1        0.0178
      7 C         139.2397  139.0621  164.2951 C.ar    1  UNL1       -0.0230
      8 C         139.9433  140.3402  163.9472 C.ar    1  UNL1       -0.0216
      9 C         140.3362  141.2993  165.0315 C.ar    1  UNL1        0.0346
     10 C         140.0253  140.9803  166.4639 C.ar    1  UNL1        0.1640
     11 O         140.2878  141.7266  167.7382 O.2     1  UNL1       -0.4384
     12 C         140.3450  140.8483  162.5942 C.3     1  UNL1        0.0434
     13 C         140.1423  140.2036  161.2550 C.3     1  UNL1        0.0768
     14 N         139.4878  138.8917  160.9382 N.3     1  UNL1       -0.2720
     15 C         138.8744  137.9004  161.8821 C.3     1  UNL1        0.0768
     16 C         138.7640  137.9762  163.3761 C.3     1  UNL1        0.0434
     17 C         140.0630  139.4244  158.4611 C.3     1  UNL1        0.0294
     18 C         140.9574  138.8519  157.4017 C.3     1  UNL1        0.0666
     19 S         142.4429  138.8264  157.6078 S.3     1  UNL1       -0.0756
     20 C         143.0062  138.7338  158.9950 C.ar    1  UNL1        0.1933
     21 N         143.2643  137.4692  159.7592 N.ar    1  UNL1       -0.1220
     22 N         143.8278  137.8434  161.0980 N.ar    1  UNL1       -0.1250
     23 C         143.9180  139.3393  161.1612 C.ar    1  UNL1        0.2029
     24 N         143.4102  139.8897  159.8615 N.ar    1  UNL1       -0.2860
     25 C         143.3219  141.3411  159.4930 C.3     1  UNL1        0.1341
     26 C         144.4266  140.1438  162.3206 C.ar    1  UNL1        0.1964
     27 O         145.3735  141.3043  162.2406 O.2     1  UNL1       -0.4283
     28 C         145.6098  141.8067  163.6342 C.ar    1  UNL1        0.2849
     29 N         144.8090  140.9566  164.5754 N.ar    1  UNL1       -0.2085
     30 C         144.0777  139.9288  163.7635 C.ar    1  UNL1        0.1001
     31 C         143.1589  138.8717  164.3005 C.3     1  UNL1        0.0556
@<TRIPOS>BOND
     1     2     3    1
     2     3     4   ar
     3     4     5   ar
     4     5     6   ar
     5     6     7   ar
     6     7     8   ar
     7     8     9   ar
     8     9    10   ar
     9    10    11   ar
    10     8    12    1
    11    12    13    1
    12    13    14    1
    13    14     1    1
    14     1    17    1
    15    17    18    1
    16    18    19    1
    17    19    20    1
    18    20    21   ar
    19    21    22   ar
    20    22    23   ar
    21    23    26    1
    22    26    27   ar
    23    27    28   ar
    24    28    29   ar
    25    29    30   ar
    26    30    31    1
    27    23    24   ar
    28    24    25    1
    29    14    15    1
    30    15    16    1
    31    11     3   ar
    32    24    20   ar
    33    10     5   ar
    34    30    26   ar
    35    16     7    1
@<TRIPOS>MOLECULE
*****
 31 35 0 0 0
SMALL
GASTEIGER

@<TRIPOS>ATOM
      1 C         140.9130  138.5008  160.2129 C.3     1  UNL1        0.0730
      2 C         140.0570  142.5837  170.5987 C.3     1  UNL1        0.0950
      3 C         140.1717  142.0365  169.2067 C.ar    1  UNL1        0.2062
      4 N         139.6796  140.6977  168.7423 N.ar    1  UNL1       -0.2121
      5 C         140.0024  140.5659  167.2834 C.ar    1  UNL1        0.1182
      6 C         139.7560  139.4633  166.2966 C.ar    1  UNL1        0.0178
      7 C         140.2012  139.6181  164.8725 C.ar    1  UNL1       -0.0230
      8 C         140.8927  140.8752  164.4354 C.ar    1  UNL1       -0.0216
      9 C         141.1392  141.9777  165.4221 C.ar    1  UNL1        0.0346
     10 C         140.6941  141.8230  166.8462 C.ar    1  UNL1        0.1640
     11 O         140.7987  142.7319  168.0349 O.2     1  UNL1       -0.4384
     12 C         141.4137  141.2313  163.0745 C.3     1  UNL1        0.0434
     13 C         141.3716  140.4180  161.8147 C.3     1  UNL1        0.0768
     14 N         140.7983  139.0480  161.6048 N.3     1  UNL1       -0.2720
     15 C         140.1253  138.1527  162.6026 C.3     1  UNL1        0.0768
     16 C         139.8596  138.4064  164.0569 C.3     1  UNL1        0.0434
     17 C         139.7012  138.4332  159.3312 C.3     1  UNL1        0.0294
     18 C         139.3798  139.5721  158.4095 C.3     1  UNL1        0.0666
     19 S         138.2770  140.5283  158.7550 S.3     1  UNL1       -0.0756
     20 C         138.5712  141.7461  159.5799 C.ar    1  UNL1        0.1933
     21 N         139.1876  143.0199  159.0827 N.ar    1  UNL1       -0.1220
     22 N         139.2980  143.9650  160.2423 N.ar    1  UNL1       -0.1250
     23 C         138.7498  143.2751  161.4562 C.ar    1  UNL1        0.2029
     24 N         138.3005  141.9037  161.0468 N.ar    1  UNL1       -0.2860
     25 C         137.6882  140.8714  161.9464 C.3     1  UNL1        0.1341
     26 C         138.6655  143.8549  162.8371 C.ar    1  UNL1        0.1964
     27 O         137.4949  143.7469  163.7687 O.2     1  UNL1       -0.4283
     28 C         137.8430  144.4697  165.0362 C.ar    1  UNL1        0.2849
     29 N         139.2287  145.0243  164.8879 N.ar    1  UNL1       -0.2085
     30 C         139.7371  144.6443  163.5288 C.ar    1  UNL1        0.1001
     31 C         141.0811  144.9927  162.9610 C.3     1  UNL1        0.0556
@<TRIPOS>BOND
     1     2     3    1
     2     3     4   ar
     3     4     5   ar
     4     5     6   ar
     5     6     7   ar
     6     7     8   ar
     7     8     9   ar
     8     9    10   ar
     9    10    11   ar
    10     8    12    1
    11    12    13    1
    12    13    14    1
    13    14     1    1
    14     1    17    1
    15    17    18    1
    16    18    19    1
    17    19    20    1
    18    20    21   ar
    19    21    22   ar
    20    22    23   ar
    21    23    26    1
    22    26    27   ar
    23    27    28   ar
    24    28    29   ar
    25    29    30   ar
    26    30    31    1
    27    23    24   ar
    28    24    25    1
    29    14    15    1
    30    15    16    1
    31    11     3   ar
    32    24    20   ar
    33    10     5   ar
    34    30    26   ar
    35    16     7    1
@<TRIPOS>MOLECULE
*****
 31 35 0 0 0
SMALL
GASTEIGER

@<TRIPOS>ATOM
      1 C         142.2275  141.8489  167.8387 C.3     1  UNL1        0.0730
      2 C         140.3656  145.9681  157.5999 C.3     1  UNL1        0.0950
      3 C         140.6152  145.4160  158.9721 C.ar    1  UNL1        0.2062
      4 N         141.9578  145.1305  159.5769 N.ar    1  UNL1       -0.2121
      5 C         141.7383  144.5906  160.9590 C.ar    1  UNL1        0.1182
      6 C         142.6936  144.1365  162.0226 C.ar    1  UNL1        0.0178
      7 C         142.1705  143.6344  163.3358 C.ar    1  UNL1       -0.0230
      8 C         140.6923  143.5863  163.5852 C.ar    1  UNL1       -0.0216
      9 C         139.7369  144.0403  162.5216 C.ar    1  UNL1        0.0346
     10 C         140.2600  144.5424  161.2084 C.ar    1  UNL1        0.1640
     11 O         139.5659  145.0526  159.9805 O.2     1  UNL1       -0.4384
     12 C         139.9656  143.1246  164.8136 C.3     1  UNL1        0.0434
     13 C         140.5379  142.5971  166.0959 C.3     1  UNL1        0.0768
     14 N         141.9780  142.4010  166.4664 N.3     1  UNL1       -0.2720
     15 C         143.2017  142.6838  165.6463 C.3     1  UNL1        0.0768
     16 C         143.2874  143.2328  164.2530 C.3     1  UNL1        0.0434
     17 C         142.6086  140.4082  168.0097 C.3     1  UNL1        0.0294
     18 C         142.0450  139.3686  167.0868 C.3     1  UNL1        0.0666
     19 S         142.9421  138.6663  166.1111 S.3     1  UNL1       -0.0756
     20 C         142.4049  138.2246  164.7821 C.ar    1  UNL1        0.1933
     21 N         141.3148  137.2180  164.5622 N.ar    1  UNL1       -0.1220
     22 N         141.0996  137.0832  163.0839 N.ar    1  UNL1       -0.1250
     23 C         142.0567  138.0065  162.3901 C.ar    1  UNL1        0.2029
     24 N         142.8635  138.7120  163.4397 N.ar    1  UNL1       -0.2860
     25 C         143.9397  139.7266  163.1905 C.3     1  UNL1        0.1341
     26 C         142.1847  138.1919  160.9071 C.ar    1  UNL1        0.1964
     27 O         142.7905  137.2133  159.9453 O.2     1  UNL1       -0.4283
     28 C         142.7095  137.8050  158.5693 C.ar    1  UNL1        0.2849
     29 N         142.0536  139.1493  158.6807 N.ar    1  UNL1       -0.2085
     30 C         141.7292  139.3885  160.1256 C.ar    1  UNL1        0.1001
     31 C         141.0659  140.6098  160.6898 C.3     1  UNL1        0.0556
@<TRIPOS>BOND
     1     2     3    1
     2     3     4   ar
     3     4     5   ar
     4     5     6   ar
     5     6     7   ar
     6     7     8   ar
     7     8     9   ar
     8     9    10   ar
     9    10    11   ar
    10     8    12    1
    11    12    13    1
    12    13    14    1
    13    14     1    1
    14     1    17    1
    15    17    18    1
    16    18    19    1
    17    19    20    1
    18    20    21   ar
    19    21    22   ar
    20    22    23   ar
    21    23    26    1
    22    26    27   ar
    23    27    28   ar
    24    28    29   ar
    25    29    30   ar
    26    30    31    1
    27    23    24   ar
    28    24    25    1
    29    14    15    1
    30    15    16    1
    31    11     3   ar
    32    24    20   ar
    33    10     5   ar
    34    30    26   ar
    35    16     7    1
@<TRIPOS>MOLECULE
*****
 31 35 0 0 0
SMALL
GASTEIGER

@<TRIPOS>ATOM
      1 C         138.9939  138.0715  160.6392 C.3     1  UNL1        0.0730
      2 C         142.8233  140.2911  170.9192 C.3     1  UNL1        0.0950
      3 C         142.3101  139.9936  169.5414 C.ar    1  UNL1        0.2062
      4 N         140.9171  140.2467  169.0457 N.ar    1  UNL1       -0.2121
      5 C         140.8459  139.8003  167.6155 C.ar    1  UNL1        0.1182
      6 C         139.7270  139.8072  166.6165 C.ar    1  UNL1        0.0178
      7 C         139.9570  139.2851  165.2291 C.ar    1  UNL1       -0.0230
      8 C         141.3058  138.7562  164.8409 C.ar    1  UNL1       -0.0216
      9 C         142.4248  138.7494  165.8399 C.ar    1  UNL1        0.0346
     10 C         142.1948  139.2714  167.2272 C.ar    1  UNL1        0.1640
     11 O         143.0997  139.3909  168.4175 O.2     1  UNL1       -0.4384
     12 C         141.7457  138.1939  163.5217 C.3     1  UNL1        0.0434
     13 C         140.9451  138.0216  162.2648 C.3     1  UNL1        0.0768
     14 N         139.5072  138.3690  162.0170 N.3     1  UNL1       -0.2720
     15 C         138.5145  138.9746  162.9646 C.3     1  UNL1        0.0768
     16 C         138.7147  139.3823  164.3941 C.3     1  UNL1        0.0434
     17 C         139.1105  139.1031  159.5564 C.3     1  UNL1        0.0294
     18 C         138.3538  140.3937  159.6654 C.3     1  UNL1        0.0666
     19 S         139.0936  141.6811  159.8775 S.3     1  UNL1       -0.0756
     20 C         139.9416  141.8661  161.1008 C.ar    1  UNL1        0.1933
     21 N         139.4698  142.3694  162.4328 N.ar    1  UNL1       -0.1220
     22 N         140.6469  142.3947  163.3622 N.ar    1  UNL1       -0.1250
     23 C         141.8462  141.9070  162.6046 C.ar    1  UNL1        0.2029
     24 N         141.4103  141.5803  161.2070 N.ar    1  UNL1       -0.2860
     25 C         142.2888  141.0593  160.1085 C.3     1  UNL1        0.1341
     26 C         143.2372  141.7700  163.1490 C.ar    1  UNL1        0.1964
     27 O         144.0454  140.5073  163.1955 O.2     1  UNL1       -0.4283
     28 C         145.3719  140.8285  163.8178 C.ar    1  UNL1        0.2849
     29 N         145.3835  142.2898  164.1559 N.ar    1  UNL1       -0.2085
     30 C         144.0641  142.8717  163.7426 C.ar    1  UNL1        0.1001
     31 C         143.6453  144.3039  163.8960 C.3     1  UNL1        0.0556
@<TRIPOS>BOND
     1     2     3    1
     2     3     4   ar
     3     4     5   ar
     4     5     6   ar
     5     6     7   ar
     6     7     8   ar
     7     8     9   ar
     8     9    10   ar
     9    10    11   ar
    10     8    12    1
    11    12    13    1
    12    13    14    1
    13    14     1    1
    14     1    17    1
    15    17    18    1
    16    18    19    1
    17    19    20    1
    18    20    21   ar
    19    21    22   ar
    20    22    23   ar
    21    23    26    1
    22    26    27   ar
    23    27    28   ar
    24    28    29   ar
    25    29    30   ar
    26    30    31    1
    27    23    24   ar
    28    24    25    1
    29    14    15    1
    30    15    16    1
    31    11     3   ar
    32    24    20   ar
    33    10     5   ar
    34    30    26   ar
    35    16     7    1
@<TRIPOS>MOLECULE
*****
 31 35 0 0 0
SMALL
GASTEIGER

@<TRIPOS>ATOM
      1 C         144.1691  138.2693  161.5979 C.3     1  UNL1        0.0730
      2 C         139.7006  142.8574  170.7767 C.3     1  UNL1        0.0950
      3 C         140.2995  142.2425  169.5465 C.ar    1  UNL1        0.2062
      4 N         141.4984  142.7499  168.8013 N.ar    1  UNL1       -0.2121
      5 C         141.7444  141.8332  167.6399 C.ar    1  UNL1        0.1182
      6 C         142.7865  141.8377  166.5609 C.ar    1  UNL1        0.0178
      7 C         142.7817  140.7681  165.5092 C.ar    1  UNL1       -0.0230
      8 C         141.7350  139.6942  165.5365 C.ar    1  UNL1       -0.0216
      9 C         140.6929  139.6897  166.6154 C.ar    1  UNL1        0.0346
     10 C         140.6976  140.7592  167.6671 C.ar    1  UNL1        0.1640
     11 O         139.8046  141.0122  168.8455 O.2     1  UNL1       -0.4384
     12 C         141.5505  138.5438  164.5917 C.3     1  UNL1        0.0434
     13 C         142.3673  138.1833  163.3863 C.3     1  UNL1        0.0768
     14 N         143.5702  138.8841  162.8280 N.3     1  UNL1       -0.2720
     15 C         144.2535  140.1186  163.3372 C.3     1  UNL1        0.0768
     16 C         143.9026  140.9571  164.5304 C.3     1  UNL1        0.0434
     17 C         143.6265  138.6196  160.2440 C.3     1  UNL1        0.0294
     18 C         142.2728  138.1253  159.8275 C.3     1  UNL1        0.0666
     19 S         141.3687  139.0072  159.0184 S.3     1  UNL1       -0.0756
     20 C         140.1675  139.6382  159.6579 C.ar    1  UNL1        0.1933
     21 N         138.7354  139.2899  159.3796 N.ar    1  UNL1       -0.1220
     22 N         137.8703  140.1647  160.2377 N.ar    1  UNL1       -0.1250
     23 C         138.7679  141.0537  161.0465 C.ar    1  UNL1        0.2029
     24 N         140.1877  140.7283  160.6881 N.ar    1  UNL1       -0.2860
     25 C         141.4125  141.3788  161.2597 C.3     1  UNL1        0.1341
     26 C         138.3237  142.0867  162.0392 C.ar    1  UNL1        0.1964
     27 O         138.1146  143.5454  161.7599 O.2     1  UNL1       -0.4283
     28 C         137.6723  144.2027  163.0337 C.ar    1  UNL1        0.2849
     29 N         137.6080  143.1499  164.1003 N.ar    1  UNL1       -0.2085
     30 C         138.0106  141.8422  163.4857 C.ar    1  UNL1        0.1001
     31 C         138.0866  140.5217  164.1933 C.3     1  UNL1        0.0556
@<TRIPOS>BOND
     1     2     3    1
     2     3     4   ar
     3     4     5   ar
     4     5     6   ar
     5     6     7   ar
     6     7     8   ar
     7     8     9   ar
     8     9    10   ar
     9    10    11   ar
    10     8    12    1
    11    12    13    1
    12    13    14    1
    13    14     1    1
    14     1    17    1
    15    17    18    1
    16    18    19    1
    17    19    20    1
    18    20    21   ar
    19    21    22   ar
    20    22    23   ar
    21    23    26    1
    22    26    27   ar
    23    27    28   ar
    24    28    29   ar
    25    29    30   ar
    26    30    31    1
    27    23    24   ar
    28    24    25    1
    29    14    15    1
    30    15    16    1
    31    11     3   ar
    32    24    20   ar
    33    10     5   ar
    34    30    26   ar
    35    16     7    1
@<TRIPOS>MOLECULE
*****
 31 35 0 0 0
SMALL
GASTEIGER

@<TRIPOS>ATOM
      1 C         140.7420  138.3683  159.4416 C.3     1  UNL1        0.0730
      2 C         139.1494  140.3054  170.3494 C.3     1  UNL1        0.0950
      3 C         139.3629  140.0458  168.8875 C.ar    1  UNL1        0.2062
      4 N         140.5333  140.5088  168.0714 N.ar    1  UNL1       -0.2121
      5 C         140.3371  140.0267  166.6647 C.ar    1  UNL1        0.1182
      6 C         141.1678  140.1824  165.4253 C.ar    1  UNL1        0.0178
      7 C         140.7068  139.5771  164.1326 C.ar    1  UNL1       -0.0230
      8 C         139.4152  138.8163  164.0792 C.ar    1  UNL1       -0.0216
      9 C         138.5846  138.6606  165.3184 C.ar    1  UNL1        0.0346
     10 C         139.0455  139.2659  166.6112 C.ar    1  UNL1        0.1640
     11 O         138.4434  139.2777  167.9850 O.2     1  UNL1       -0.4384
     12 C         138.7767  138.1389  162.9029 C.3     1  UNL1        0.0434
     13 C         139.2723  138.0551  161.4895 C.3     1  UNL1        0.0768
     14 N         140.5285  138.6279  160.9035 N.3     1  UNL1       -0.2720
     15 C         141.5997  139.4261  161.5859 C.3     1  UNL1        0.0768
     16 C         141.6790  139.8485  163.0230 C.3     1  UNL1        0.0434
     17 C         140.4036  139.4273  158.4345 C.3     1  UNL1        0.0294
     18 C         138.9690  139.7586  158.1476 C.3     1  UNL1        0.0666
     19 S         138.3943  141.0650  158.6090 S.3     1  UNL1       -0.0756
     20 C         138.7219  141.5874  159.9764 C.ar    1  UNL1        0.1933
     21 N         137.9568  141.3040  161.2351 N.ar    1  UNL1       -0.1220
     22 N         138.6341  142.0263  162.3618 N.ar    1  UNL1       -0.1250
     23 C         139.8178  142.7561  161.7995 C.ar    1  UNL1        0.2029
     24 N         139.8721  142.4848  160.3251 N.ar    1  UNL1       -0.2860
     25 C         140.8967  143.0175  159.3678 C.3     1  UNL1        0.1341
     26 C         140.7786  143.6076  162.5752 C.ar    1  UNL1        0.1964
     27 O         141.9182  143.1105  163.4143 O.2     1  UNL1       -0.4283
     28 C         142.6124  144.3015  164.0057 C.ar    1  UNL1        0.2849
     29 N         141.9018  145.5346  163.5321 N.ar    1  UNL1       -0.2085
     30 C         140.7685  145.1058  162.6480 C.ar    1  UNL1        0.1001
     31 C         139.7958  146.0156  161.9578 C.3     1  UNL1        0.0556
@<TRIPOS>BOND
     1     2     3    1
     2     3     4   ar
     3     4     5   ar
     4     5     6   ar
     5     6     7   ar
     6     7     8   ar
     7     8     9   ar
     8     9    10   ar
     9    10    11   ar
    10     8    12    1
    11    12    13    1
    12    13    14    1
    13    14     1    1
    14     1    17    1
    15    17    18    1
    16    18    19    1
    17    19    20    1
    18    20    21   ar
    19    21    22   ar
    20    22    23   ar
    21    23    26    1
    22    26    27   ar
    23    27    28   ar
    24    28    29   ar
    25    29    30   ar
    26    30    31    1
    27    23    24   ar
    28    24    25    1
    29    14    15    1
    30    15    16    1
    31    11     3   ar
    32    24    20   ar
    33    10     5   ar
    34    30    26   ar
    35    16     7    1
@<TRIPOS>MOLECULE
*****
 31 35 0 0 0
SMALL
GASTEIGER

@<TRIPOS>ATOM
      1 C         143.0356  141.3225  159.1414 C.3     1  UNL1        0.0730
      2 C         142.2845  139.0366  170.0720 C.3     1  UNL1        0.0950
      3 C         142.3852  139.3429  168.6071 C.ar    1  UNL1        0.2062
      4 N         143.3979  138.7778  167.6556 N.ar    1  UNL1       -0.2121
      5 C         143.1294  139.3538  166.2970 C.ar    1  UNL1        0.1182
      6 C         143.8059  139.1586  164.9724 C.ar    1  UNL1        0.0178
      7 C         143.3037  139.8845  163.7596 C.ar    1  UNL1       -0.0230
      8 C         142.1252  140.8055  163.8713 C.ar    1  UNL1       -0.0216
      9 C         141.4487  141.0008  165.1957 C.ar    1  UNL1        0.0346
     10 C         141.9508  140.2749  166.4086 C.ar    1  UNL1        0.1640
     11 O         141.4909  140.2682  167.8363 O.2     1  UNL1       -0.4384
     12 C         141.4690  141.6194  162.7955 C.3     1  UNL1        0.0434
     13 C         141.8294  141.7131  161.3424 C.3     1  UNL1        0.0768
     14 N         142.9349  141.0161  160.6063 N.3     1  UNL1       -0.2720
     15 C         143.9532  140.0533  161.1413 C.3     1  UNL1        0.0768
     16 C         144.1173  139.5497  162.5447 C.3     1  UNL1        0.0434
     17 C         142.0542  140.7203  158.1800 C.3     1  UNL1        0.0294
     18 C         141.8591  139.2336  158.1401 C.3     1  UNL1        0.0666
     19 S         140.4778  138.6558  158.2301 S.3     1  UNL1       -0.0756
     20 C         139.5804  139.0318  159.3717 C.ar    1  UNL1        0.1933
     21 N         138.2732  139.7595  159.2629 N.ar    1  UNL1       -0.1220
     22 N         137.7175  139.9237  160.6464 N.ar    1  UNL1       -0.1250
     23 C         138.6812  139.2974  161.6103 C.ar    1  UNL1        0.2029
     24 N         139.8326  138.7462  160.8225 N.ar    1  UNL1       -0.2860
     25 C         141.0264  138.0344  161.3865 C.3     1  UNL1        0.1341
     26 C         138.5217  139.2335  163.1004 C.ar    1  UNL1        0.1964
     27 O         138.7870  138.0370  163.9651 O.2     1  UNL1       -0.4283
     28 C         138.4981  138.4189  165.3866 C.ar    1  UNL1        0.2849
     29 N         138.0542  139.8517  165.4005 N.ar    1  UNL1       -0.2085
     30 C         138.0688  140.3551  163.9875 C.ar    1  UNL1        0.1001
     31 C         137.6959  141.7375  163.5403 C.3     1  UNL1        0.0556
@<TRIPOS>BOND
     1     2     3    1
     2     3     4   ar
     3     4     5   ar
     4     5     6   ar
     5     6     7   ar
     6     7     8   ar
     7     8     9   ar
     8     9    10   ar
     9    10    11   ar
    10     8    12    1
    11    12    13    1
    12    13    14    1
    13    14     1    1
    14     1    17    1
    15    17    18    1
    16    18    19    1
    17    19    20    1
    18    20    21   ar
    19    21    22   ar
    20    22    23   ar
    21    23    26    1
    22    26    27   ar
    23    27    28   ar
    24    28    29   ar
    25    29    30   ar
    26    30    31    1
    27    23    24   ar
    28    24    25    1
    29    14    15    1
    30    15    16    1
    31    11     3   ar
    32    24    20   ar
    33    10     5   ar
    34    30    26   ar
    35    16     7    1
