@<TRIPOS>MOLECULE
*****
 38 42 0 0 0
SMALL
GASTEIGER

@<TRIPOS>ATOM
      1 C         141.1335  140.2624  165.0897 C.3     1  UNL1        0.0279
      2 C         140.7567  140.3550  163.6408 C.3     1  UNL1        0.0260
      3 C         141.7887  140.7340  162.6202 C.3     1  UNL1        0.0940
      4 N         143.1974  141.0203  163.0487 N.am    1  UNL1       -0.2761
      5 C         144.2293  141.3993  162.0282 C.2     1  UNL1        0.2490
      6 O         145.6381  141.6856  162.4566 O.2     1  UNL1       -0.2699
      7 C         143.5741  140.9277  164.4977 C.3     1  UNL1        0.0940
      8 C         142.5422  140.5487  165.5182 C.3     1  UNL1        0.0260
      9 C         139.1822  140.0154  168.5367 C.ar    1  UNL1       -0.0068
     10 C         138.0377  139.1256  168.1514 C.ar    1  UNL1       -0.0006
     11 C         137.9252  138.6147  166.7456 C.ar    1  UNL1        0.0290
     12 C         138.9570  138.9937  165.7250 C.ar    1  UNL1        0.1361
     13 F         138.8445  138.4828  164.3192 F       1  UNL1       -0.2045
     14 C         140.1015  139.8834  166.1103 C.ar    1  UNL1        0.0048
     15 C         140.2141  140.3943  167.5161 C.ar    1  UNL1       -0.0050
     16 N         139.6843  139.5933  171.0506 N.3     1  UNL1       -0.3175
     17 C         139.2947  140.5262  169.9425 C.3     1  UNL1        0.0922
     18 H         139.7118  140.1054  171.9323 H       1  UNL1        0.1192
     19 H         140.6056  139.2009  170.8565 H       1  UNL1        0.1192
     20 C         143.8526  141.4919  160.5793 C.ar    1  UNL1        0.0538
     21 C         143.3702  142.7938  160.0115 C.ar    1  UNL1        0.0056
     22 C         142.9934  142.8864  158.5625 C.ar    1  UNL1        0.0143
     23 C         143.0991  141.6771  157.6813 C.ar    1  UNL1        0.0059
     24 C         143.5815  140.3752  158.2491 C.ar    1  UNL1        0.0563
     25 C         143.9582  140.2826  159.6980 C.ar    1  UNL1        0.0092
     26 C         143.6872  139.1660  157.3680 C.ar    1  UNL1        0.2600
     27 N         142.9508  137.8724  157.5539 N.ar    1  UNL1       -0.1865
     28 C         143.3563  136.9449  156.4469 C.ar    1  UNL1        0.2096
     29 N         144.3433  137.6652  155.5768 N.ar    1  UNL1       -0.0551
     30 O         144.5478  139.0379  156.1460 O.2     1  UNL1       -0.3324
     31 C         142.8617  135.5432  156.2455 C.ar    1  UNL1        0.0685
     32 C         141.7004  135.1325  155.3896 C.ar    1  UNL1        0.0102
     33 C         141.5626  133.6416  155.4797 C.ar    1  UNL1        0.0076
     34 C         142.6387  133.1309  156.3913 C.ar    1  UNL1        0.0355
     35 S         143.4417  134.3061  156.8646 S.2     1  UNL1       -0.0832
     36 C         142.5110  144.1883  157.9947 C.2     1  UNL1        0.0729
     37 O         142.2484  145.3518  158.9043 O.co2   1  UNL1       -0.5446
     38 O         142.2911  144.3266  156.5174 O.co2   1  UNL1       -0.5446
@<TRIPOS>UNITY_ATOM_ATTR
37 1
charge -1
@<TRIPOS>BOND
     1    16    17    1
     2    17     9    1
     3     9    10   ar
     4    10    11   ar
     5    11    12   ar
     6    12    13    1
     7    12    14   ar
     8    14     1    1
     9     1     2    1
    10     2     3    1
    11     3     4    1
    12     4     5   am
    13     5     6    2
    14     5    20    1
    15    20    21   ar
    16    21    22   ar
    17    22    36    1
    18    36    37   ar
    19    36    38   ar
    20    22    23   ar
    21    23    24   ar
    22    24    26    1
    23    26    27   ar
    24    27    28   ar
    25    28    31    1
    26    31    32   ar
    27    32    33   ar
    28    33    34   ar
    29    34    35   ar
    30    28    29   ar
    31    29    30   ar
    32    24    25   ar
    33     4     7    1
    34     7     8    1
    35    14    15   ar
    36    15     9   ar
    37     8     1    1
    38    25    20   ar
    39    30    26   ar
    40    35    31   ar
    41    16    18    1
    42    16    19    1
@<TRIPOS>MOLECULE
*****
 38 42 0 0 0
SMALL
GASTEIGER

@<TRIPOS>ATOM
      1 C         142.4409  141.3400  165.9205 C.3     1  UNL1        0.0279
      2 C         141.5903  140.8321  164.7943 C.3     1  UNL1        0.0260
      3 C         141.9737  141.1245  163.3739 C.3     1  UNL1        0.0940
      4 N         143.2078  141.9248  163.0797 N.am    1  UNL1       -0.2761
      5 C         143.5913  142.2172  161.6594 C.2     1  UNL1        0.2490
      6 O         144.8254  143.0176  161.3653 O.2     1  UNL1       -0.2699
      7 C         144.0584  142.4327  164.2061 C.3     1  UNL1        0.0940
      8 C         143.6750  142.1403  165.6264 C.3     1  UNL1        0.0260
      9 C         140.8169  141.7237  169.5213 C.ar    1  UNL1       -0.0068
     10 C         141.2905  140.4629  170.1816 C.ar    1  UNL1       -0.0006
     11 C         142.1476  139.4945  169.4216 C.ar    1  UNL1        0.0290
     12 C         142.5310  139.7868  168.0013 C.ar    1  UNL1        0.1361
     13 F         143.3881  138.8184  167.2413 F       1  UNL1       -0.2045
     14 C         142.0574  141.0476  167.3409 C.ar    1  UNL1        0.0048
     15 C         141.2004  142.0160  168.1009 C.ar    1  UNL1       -0.0050
     16 N         140.2178  144.1659  170.1745 N.3     1  UNL1       -0.3175
     17 C         139.9599  142.6921  170.2813 C.3     1  UNL1        0.0922
     18 H         139.5463  144.6713  170.7525 H       1  UNL1        0.1192
     19 H         140.1183  144.4589  169.2026 H       1  UNL1        0.1192
     20 C         142.7407  141.7093  160.5332 C.ar    1  UNL1        0.0538
     21 C         141.4353  142.3780  160.2186 C.ar    1  UNL1        0.0056
     22 C         140.5847  141.8700  159.0923 C.ar    1  UNL1        0.0143
     23 C         141.0394  140.6934  158.2807 C.ar    1  UNL1        0.0059
     24 C         142.3448  140.0248  158.5952 C.ar    1  UNL1        0.0563
     25 C         143.1954  140.5327  159.7214 C.ar    1  UNL1        0.0092
     26 C         142.7995  138.8482  157.7836 C.ar    1  UNL1        0.2600
     27 N         142.2820  137.4450  157.8983 N.ar    1  UNL1       -0.1865
     28 C         143.0143  136.5977  156.9002 C.ar    1  UNL1        0.2096
     29 N         143.9844  137.4774  156.1686 N.ar    1  UNL1       -0.0551
     30 O         143.8516  138.8682  156.7145 O.2     1  UNL1       -0.3324
     31 C         142.8121  135.1288  156.6736 C.ar    1  UNL1        0.0685
     32 C         141.8748  134.5111  155.6787 C.ar    1  UNL1        0.0102
     33 C         141.9950  133.0203  155.7923 C.ar    1  UNL1        0.0076
     34 C         143.0066  132.7166  156.8574 C.ar    1  UNL1        0.0355
     35 S         143.5116  134.0198  157.4021 S.2     1  UNL1       -0.0832
     36 C         139.2793  142.5386  158.7778 C.2     1  UNL1        0.0729
     37 O         138.4298  143.0844  159.8870 O.co2   1  UNL1       -0.5446
     38 O         138.8235  142.6614  157.3540 O.co2   1  UNL1       -0.5446
@<TRIPOS>UNITY_ATOM_ATTR
37 1
charge -1
@<TRIPOS>BOND
     1    16    17    1
     2    17     9    1
     3     9    10   ar
     4    10    11   ar
     5    11    12   ar
     6    12    13    1
     7    12    14   ar
     8    14     1    1
     9     1     2    1
    10     2     3    1
    11     3     4    1
    12     4     5   am
    13     5     6    2
    14     5    20    1
    15    20    21   ar
    16    21    22   ar
    17    22    36    1
    18    36    37   ar
    19    36    38   ar
    20    22    23   ar
    21    23    24   ar
    22    24    26    1
    23    26    27   ar
    24    27    28   ar
    25    28    31    1
    26    31    32   ar
    27    32    33   ar
    28    33    34   ar
    29    34    35   ar
    30    28    29   ar
    31    29    30   ar
    32    24    25   ar
    33     4     7    1
    34     7     8    1
    35    14    15   ar
    36    15     9   ar
    37     8     1    1
    38    25    20   ar
    39    30    26   ar
    40    35    31   ar
    41    16    18    1
    42    16    19    1
@<TRIPOS>MOLECULE
*****
 38 42 0 0 0
SMALL
GASTEIGER

@<TRIPOS>ATOM
      1 C         139.5762  140.6603  165.7107 C.3     1  UNL1        0.0279
      2 C         140.7748  140.9485  164.8560 C.3     1  UNL1        0.0260
      3 C         140.7159  140.7092  163.3764 C.3     1  UNL1        0.0940
      4 N         139.4584  140.1818  162.7514 N.am    1  UNL1       -0.2761
      5 C         139.3995  139.9425  161.2718 C.2     1  UNL1        0.2490
      6 O         138.1421  139.4150  160.6468 O.2     1  UNL1       -0.2699
      7 C         138.2599  139.8936  163.6061 C.3     1  UNL1        0.0940
      8 C         138.3188  140.1329  165.0857 C.3     1  UNL1        0.0260
      9 C         140.3804  142.3605  169.2054 C.ar    1  UNL1       -0.0068
     10 C         139.7529  141.3782  170.1495 C.ar    1  UNL1       -0.0006
     11 C         139.0665  140.1567  169.6140 C.ar    1  UNL1        0.0290
     12 C         139.0076  139.9174  168.1345 C.ar    1  UNL1        0.1361
     13 F         138.3212  138.6959  167.5990 F       1  UNL1       -0.2045
     14 C         139.6351  140.8996  167.1903 C.ar    1  UNL1        0.0048
     15 C         140.3215  142.1211  167.7258 C.ar    1  UNL1       -0.0050
     16 N         140.2551  144.7301  170.2632 N.3     1  UNL1       -0.3175
     17 C         141.0668  143.5820  169.7408 C.3     1  UNL1        0.0922
     18 H         140.8798  145.4696  170.5846 H       1  UNL1        0.1192
     19 H         139.6768  144.4117  171.0407 H       1  UNL1        0.1192
     20 C         140.5981  140.2307  160.4172 C.ar    1  UNL1        0.0538
     21 C         141.2585  141.5759  160.4807 C.ar    1  UNL1        0.0056
     22 C         142.4571  141.8641  159.6260 C.ar    1  UNL1        0.0143
     23 C         142.9952  140.8070  158.7079 C.ar    1  UNL1        0.0059
     24 C         142.3348  139.4617  158.6444 C.ar    1  UNL1        0.0563
     25 C         141.1362  139.1735  159.4990 C.ar    1  UNL1        0.0092
     26 C         142.8728  138.4046  157.7263 C.ar    1  UNL1        0.2600
     27 N         142.5173  136.9476  157.7550 N.ar    1  UNL1       -0.1865
     28 C         143.2857  136.2614  156.6647 C.ar    1  UNL1        0.2096
     29 N         144.1162  137.2943  155.9621 N.ar    1  UNL1       -0.0551
     30 O         143.8610  138.6188  156.6182 O.2     1  UNL1       -0.3324
     31 C         143.2329  134.7990  156.3348 C.ar    1  UNL1        0.0685
     32 C         143.0427  134.2097  154.9686 C.ar    1  UNL1        0.0102
     33 C         143.0533  132.7158  155.1027 C.ar    1  UNL1        0.0076
     34 C         143.2500  132.3818  156.5517 C.ar    1  UNL1        0.0355
     35 S         143.3610  133.6694  157.3132 S.2     1  UNL1       -0.0832
     36 C         143.1176  143.2093  159.6895 C.2     1  UNL1        0.0729
     37 O         143.7658  143.6673  160.9623 O.co2   1  UNL1       -0.5446
     38 O         143.1299  144.0967  158.4801 O.co2   1  UNL1       -0.5446
@<TRIPOS>UNITY_ATOM_ATTR
37 1
charge -1
@<TRIPOS>BOND
     1    16    17    1
     2    17     9    1
     3     9    10   ar
     4    10    11   ar
     5    11    12   ar
     6    12    13    1
     7    12    14   ar
     8    14     1    1
     9     1     2    1
    10     2     3    1
    11     3     4    1
    12     4     5   am
    13     5     6    2
    14     5    20    1
    15    20    21   ar
    16    21    22   ar
    17    22    36    1
    18    36    37   ar
    19    36    38   ar
    20    22    23   ar
    21    23    24   ar
    22    24    26    1
    23    26    27   ar
    24    27    28   ar
    25    28    31    1
    26    31    32   ar
    27    32    33   ar
    28    33    34   ar
    29    34    35   ar
    30    28    29   ar
    31    29    30   ar
    32    24    25   ar
    33     4     7    1
    34     7     8    1
    35    14    15   ar
    36    15     9   ar
    37     8     1    1
    38    25    20   ar
    39    30    26   ar
    40    35    31   ar
    41    16    18    1
    42    16    19    1
@<TRIPOS>MOLECULE
*****
 38 42 0 0 0
SMALL
GASTEIGER

@<TRIPOS>ATOM
      1 C         141.0019  142.1815  166.0312 C.3     1  UNL1        0.0279
      2 C         141.5423  141.9071  164.6591 C.3     1  UNL1        0.0260
      3 C         140.8485  142.4685  163.4535 C.3     1  UNL1        0.0940
      4 N         139.6141  143.3043  163.6200 N.am    1  UNL1       -0.2761
      5 C         138.9203  143.8657  162.4145 C.2     1  UNL1        0.2490
      6 O         137.6859  144.7016  162.5810 O.2     1  UNL1       -0.2699
      7 C         139.0736  143.5788  164.9922 C.3     1  UNL1        0.0940
      8 C         139.7675  143.0173  166.1977 C.3     1  UNL1        0.0260
      9 C         143.2192  141.9536  169.3147 C.ar    1  UNL1       -0.0068
     10 C         143.0834  140.4974  169.6479 C.ar    1  UNL1       -0.0006
     11 C         142.2538  139.6026  168.7756 C.ar    1  UNL1        0.0290
     12 C         141.5599  140.1639  167.5700 C.ar    1  UNL1        0.1361
     13 F         140.7302  139.2691  166.6977 F       1  UNL1       -0.2045
     14 C         141.6957  141.6201  167.2368 C.ar    1  UNL1        0.0048
     15 C         142.5254  142.5149  168.1091 C.ar    1  UNL1       -0.0050
     16 N         143.3816  143.8218  171.1128 N.3     1  UNL1       -0.3175
     17 C         144.0489  142.8484  170.1870 C.3     1  UNL1        0.0922
     18 H         144.0916  144.3445  171.6257 H       1  UNL1        0.1192
     19 H         142.7909  143.3143  171.7715 H       1  UNL1        0.1192
     20 C         139.4607  143.5913  161.0425 C.ar    1  UNL1        0.0538
     21 C         140.0101  144.7148  160.2142 C.ar    1  UNL1        0.0056
     22 C         140.5506  144.4403  158.8421 C.ar    1  UNL1        0.0143
     23 C         140.5417  143.0424  158.2984 C.ar    1  UNL1        0.0059
     24 C         139.9924  141.9189  159.1267 C.ar    1  UNL1        0.0563
     25 C         139.4519  142.1933  160.4987 C.ar    1  UNL1        0.0092
     26 C         139.9836  140.5210  158.5829 C.ar    1  UNL1        0.2600
     27 N         141.1484  139.8095  157.9607 N.ar    1  UNL1       -0.1865
     28 C         140.6931  138.4378  157.5591 C.ar    1  UNL1        0.2096
     29 N         139.2468  138.3015  157.9331 N.ar    1  UNL1       -0.0551
     30 O         138.8083  139.5889  158.5658 O.2     1  UNL1       -0.3324
     31 C         141.5360  137.3870  156.8994 C.ar    1  UNL1        0.0685
     32 C         142.8149  136.8167  157.4372 C.ar    1  UNL1        0.0102
     33 C         143.3172  135.7992  156.4562 C.ar    1  UNL1        0.0076
     34 C         142.3489  135.7407  155.3122 C.ar    1  UNL1        0.0355
     35 S         141.2479  136.7220  155.5861 S.2     1  UNL1       -0.0832
     36 C         141.0999  145.5637  158.0138 C.2     1  UNL1        0.0729
     37 O         142.5731  145.8460  158.0155 O.co2   1  UNL1       -0.5446
     38 O         140.1760  146.4050  157.1839 O.co2   1  UNL1       -0.5446
@<TRIPOS>UNITY_ATOM_ATTR
37 1
charge -1
@<TRIPOS>BOND
     1    16    17    1
     2    17     9    1
     3     9    10   ar
     4    10    11   ar
     5    11    12   ar
     6    12    13    1
     7    12    14   ar
     8    14     1    1
     9     1     2    1
    10     2     3    1
    11     3     4    1
    12     4     5   am
    13     5     6    2
    14     5    20    1
    15    20    21   ar
    16    21    22   ar
    17    22    36    1
    18    36    37   ar
    19    36    38   ar
    20    22    23   ar
    21    23    24   ar
    22    24    26    1
    23    26    27   ar
    24    27    28   ar
    25    28    31    1
    26    31    32   ar
    27    32    33   ar
    28    33    34   ar
    29    34    35   ar
    30    28    29   ar
    31    29    30   ar
    32    24    25   ar
    33     4     7    1
    34     7     8    1
    35    14    15   ar
    36    15     9   ar
    37     8     1    1
    38    25    20   ar
    39    30    26   ar
    40    35    31   ar
    41    16    18    1
    42    16    19    1
@<TRIPOS>MOLECULE
*****
 38 42 0 0 0
SMALL
GASTEIGER

@<TRIPOS>ATOM
      1 C         140.9142  139.8481  165.1789 C.3     1  UNL1        0.0279
      2 C         141.6750  140.8406  164.3506 C.3     1  UNL1        0.0260
      3 C         141.4774  140.8852  162.8643 C.3     1  UNL1        0.0940
      4 N         140.5188  139.9373  162.2064 N.am    1  UNL1       -0.2761
      5 C         140.3211  139.9819  160.7202 C.2     1  UNL1        0.2490
      6 O         139.3626  139.0341  160.0623 O.2     1  UNL1       -0.2699
      7 C         139.7580  138.9449  163.0348 C.3     1  UNL1        0.0940
      8 C         139.9557  138.9003  164.5211 C.3     1  UNL1        0.0260
      9 C         140.1972  140.1728  169.0687 C.ar    1  UNL1       -0.0068
     10 C         141.5071  139.7143  169.6377 C.ar    1  UNL1       -0.0006
     11 C         142.6194  139.3003  168.7204 C.ar    1  UNL1        0.0290
     12 C         142.4218  139.3449  167.2342 C.ar    1  UNL1        0.1361
     13 F         143.5341  138.9310  166.3169 F       1  UNL1       -0.2045
     14 C         141.1119  139.8035  166.6652 C.ar    1  UNL1        0.0048
     15 C         139.9996  140.2174  167.5825 C.ar    1  UNL1       -0.0050
     16 N         139.1470  141.9093  170.6910 N.3     1  UNL1       -0.3175
     17 C         139.0849  140.5868  169.9860 C.3     1  UNL1        0.0922
     18 H         138.3146  142.0260  171.2689 H       1  UNL1        0.1192
     19 H         139.1906  142.6602  170.0020 H       1  UNL1        0.1192
     20 C         141.0820  140.9744  159.8919 C.ar    1  UNL1        0.0538
     21 C         140.7379  142.4325  159.9648 C.ar    1  UNL1        0.0056
     22 C         141.4988  143.4250  159.1364 C.ar    1  UNL1        0.0143
     23 C         142.6037  142.9592  158.2352 C.ar    1  UNL1        0.0059
     24 C         142.9477  141.5011  158.1623 C.ar    1  UNL1        0.0563
     25 C         142.1869  140.5086  158.9906 C.ar    1  UNL1        0.0092
     26 C         144.0526  141.0353  157.2610 C.ar    1  UNL1        0.2600
     27 N         145.0770  141.9080  156.5984 N.ar    1  UNL1       -0.1865
     28 C         145.9847  141.0271  155.7920 C.ar    1  UNL1        0.2096
     29 N         145.5211  139.6099  155.9562 N.ar    1  UNL1       -0.0551
     30 O         144.3271  139.6150  156.8640 O.2     1  UNL1       -0.3324
     31 C         147.1510  141.4832  154.9663 C.ar    1  UNL1        0.0685
     32 C         148.5442  141.7252  155.4665 C.ar    1  UNL1        0.0102
     33 C         149.3831  142.1689  154.3048 C.ar    1  UNL1        0.0076
     34 C         148.5082  142.2012  153.0868 C.ar    1  UNL1        0.0355
     35 S         147.1287  141.7774  153.4957 S.2     1  UNL1       -0.0832
     36 C         141.1548  144.8832  159.2093 C.2     1  UNL1        0.0729
     37 O         142.0015  145.8905  158.4894 O.co2   1  UNL1       -0.5446
     38 O         139.9639  145.3341  160.0023 O.co2   1  UNL1       -0.5446
@<TRIPOS>UNITY_ATOM_ATTR
37 1
charge -1
@<TRIPOS>BOND
     1    16    17    1
     2    17     9    1
     3     9    10   ar
     4    10    11   ar
     5    11    12   ar
     6    12    13    1
     7    12    14   ar
     8    14     1    1
     9     1     2    1
    10     2     3    1
    11     3     4    1
    12     4     5   am
    13     5     6    2
    14     5    20    1
    15    20    21   ar
    16    21    22   ar
    17    22    36    1
    18    36    37   ar
    19    36    38   ar
    20    22    23   ar
    21    23    24   ar
    22    24    26    1
    23    26    27   ar
    24    27    28   ar
    25    28    31    1
    26    31    32   ar
    27    32    33   ar
    28    33    34   ar
    29    34    35   ar
    30    28    29   ar
    31    29    30   ar
    32    24    25   ar
    33     4     7    1
    34     7     8    1
    35    14    15   ar
    36    15     9   ar
    37     8     1    1
    38    25    20   ar
    39    30    26   ar
    40    35    31   ar
    41    16    18    1
    42    16    19    1
@<TRIPOS>MOLECULE
*****
 38 42 0 0 0
SMALL
GASTEIGER

@<TRIPOS>ATOM
      1 C         140.3405  140.3777  165.7236 C.3     1  UNL1        0.0279
      2 C         140.9897  140.8686  164.4637 C.3     1  UNL1        0.0260
      3 C         140.4211  140.4871  163.1291 C.3     1  UNL1        0.0940
      4 N         139.2032  139.6146  163.0545 N.am    1  UNL1       -0.2761
      5 C         138.6345  139.2330  161.7200 C.2     1  UNL1        0.2490
      6 O         137.4166  138.3605  161.6454 O.2     1  UNL1       -0.2699
      7 C         138.5540  139.1237  164.3146 C.3     1  UNL1        0.0940
      8 C         139.1227  139.5053  165.6491 C.3     1  UNL1        0.0260
      9 C         140.9299  142.3267  169.1301 C.ar    1  UNL1       -0.0068
     10 C         142.0464  141.5225  169.7273 C.ar    1  UNL1       -0.0006
     11 C         142.5943  140.3367  168.9900 C.ar    1  UNL1        0.0290
     12 C         142.0256  139.9551  167.6554 C.ar    1  UNL1        0.1361
     13 F         142.5735  138.7693  166.9181 F       1  UNL1       -0.2045
     14 C         140.9092  140.7593  167.0582 C.ar    1  UNL1        0.0048
     15 C         140.3613  141.9451  167.7956 C.ar    1  UNL1       -0.0050
     16 N         139.4629  143.3104  171.0354 N.3     1  UNL1       -0.3175
     17 C         140.3821  143.5126  169.8674 C.3     1  UNL1        0.0922
     18 H         139.1892  144.2173  171.4136 H       1  UNL1        0.1192
     19 H         139.9429  142.7720  171.7566 H       1  UNL1        0.1192
     20 C         139.2837  139.7239  160.4601 C.ar    1  UNL1        0.0538
     21 C         139.0414  141.1273  159.9891 C.ar    1  UNL1        0.0056
     22 C         139.6907  141.6182  158.7291 C.ar    1  UNL1        0.0143
     23 C         140.5822  140.7057  157.9401 C.ar    1  UNL1        0.0059
     24 C         140.8245  139.3023  158.4110 C.ar    1  UNL1        0.0563
     25 C         140.1753  138.8114  159.6710 C.ar    1  UNL1        0.0092
     26 C         141.7159  138.3898  157.6221 C.ar    1  UNL1        0.2600
     27 N         141.3313  137.0558  157.0540 N.ar    1  UNL1       -0.1865
     28 C         142.5264  136.4926  156.3434 C.ar    1  UNL1        0.2096
     29 N         143.6495  137.4785  156.4723 N.ar    1  UNL1       -0.0551
     30 O         143.1487  138.6510  157.2625 O.2     1  UNL1       -0.3324
     31 C         142.5875  135.1749  155.6294 C.ar    1  UNL1        0.0685
     32 C         142.3250  134.9501  154.1697 C.ar    1  UNL1        0.0102
     33 C         142.4971  133.4869  153.8879 C.ar    1  UNL1        0.0076
     34 C         142.8659  132.8075  155.1732 C.ar    1  UNL1        0.0355
     35 S         142.9218  133.8507  156.2496 S.2     1  UNL1       -0.0832
     36 C         139.4484  143.0215  158.2581 C.2     1  UNL1        0.0729
     37 O         139.0944  143.2807  156.8238 O.co2   1  UNL1       -0.5446
     38 O         139.5601  144.1658  159.2216 O.co2   1  UNL1       -0.5446
@<TRIPOS>UNITY_ATOM_ATTR
37 1
charge -1
@<TRIPOS>BOND
     1    16    17    1
     2    17     9    1
     3     9    10   ar
     4    10    11   ar
     5    11    12   ar
     6    12    13    1
     7    12    14   ar
     8    14     1    1
     9     1     2    1
    10     2     3    1
    11     3     4    1
    12     4     5   am
    13     5     6    2
    14     5    20    1
    15    20    21   ar
    16    21    22   ar
    17    22    36    1
    18    36    37   ar
    19    36    38   ar
    20    22    23   ar
    21    23    24   ar
    22    24    26    1
    23    26    27   ar
    24    27    28   ar
    25    28    31    1
    26    31    32   ar
    27    32    33   ar
    28    33    34   ar
    29    34    35   ar
    30    28    29   ar
    31    29    30   ar
    32    24    25   ar
    33     4     7    1
    34     7     8    1
    35    14    15   ar
    36    15     9   ar
    37     8     1    1
    38    25    20   ar
    39    30    26   ar
    40    35    31   ar
    41    16    18    1
    42    16    19    1
@<TRIPOS>MOLECULE
*****
 38 42 0 0 0
SMALL
GASTEIGER

@<TRIPOS>ATOM
      1 C         140.1460  142.4022  165.3842 C.3     1  UNL1        0.0279
      2 C         140.2622  141.5118  164.1827 C.3     1  UNL1        0.0260
      3 C         140.1405  142.0918  162.8047 C.3     1  UNL1        0.0940
      4 N         139.9028  143.5623  162.6283 N.am    1  UNL1       -0.2761
      5 C         139.7812  144.1424  161.2504 C.2     1  UNL1        0.2490
      6 O         139.5435  145.6129  161.0740 O.2     1  UNL1       -0.2699
      7 C         139.7867  144.4527  163.8299 C.3     1  UNL1        0.0940
      8 C         139.9083  143.8727  165.2078 C.3     1  UNL1        0.0260
      9 C         141.2949  141.8860  169.1477 C.ar    1  UNL1       -0.0068
     10 C         140.5109  140.6621  169.5180 C.ar    1  UNL1       -0.0006
     11 C         139.6053  140.0181  168.5105 C.ar    1  UNL1        0.0290
     12 C         139.4836  140.5981  167.1325 C.ar    1  UNL1        0.1361
     13 F         138.5780  139.9542  166.1250 F       1  UNL1       -0.2045
     14 C         140.2676  141.8221  166.7622 C.ar    1  UNL1        0.0048
     15 C         141.1733  142.4660  167.7697 C.ar    1  UNL1       -0.0050
     16 N         142.0235  142.2400  171.6162 N.3     1  UNL1       -0.3175
     17 C         142.2005  142.5300  170.1552 C.3     1  UNL1        0.0922
     18 H         142.7194  142.7583  172.1524 H       1  UNL1        0.1192
     19 H         142.1425  141.2405  171.7813 H       1  UNL1        0.1192
     20 C         139.8973  143.2520  160.0489 C.ar    1  UNL1        0.0538
     21 C         138.6654  142.8400  159.2988 C.ar    1  UNL1        0.0056
     22 C         138.7816  141.9496  158.0972 C.ar    1  UNL1        0.0143
     23 C         140.1296  141.4711  157.6458 C.ar    1  UNL1        0.0059
     24 C         141.3616  141.8831  158.3959 C.ar    1  UNL1        0.0563
     25 C         141.2454  142.7735  159.5974 C.ar    1  UNL1        0.0092
     26 C         142.7096  141.4046  157.9445 C.ar    1  UNL1        0.2600
     27 N         143.5956  142.0827  156.9419 N.ar    1  UNL1       -0.1865
     28 C         144.8420  141.2612  156.7942 C.ar    1  UNL1        0.2096
     29 N         144.7263  140.0754  157.7056 N.ar    1  UNL1       -0.0551
     30 O         143.4085  140.1641  158.4166 O.2     1  UNL1       -0.3324
     31 C         146.0006  141.5710  155.8933 C.ar    1  UNL1        0.0685
     32 C         147.2736  142.2539  156.2973 C.ar    1  UNL1        0.0102
     33 C         148.1493  142.3573  155.0839 C.ar    1  UNL1        0.0076
     34 C         147.4176  141.7384  153.9300 C.ar    1  UNL1        0.0355
     35 S         146.0896  141.2524  154.4303 S.2     1  UNL1       -0.0832
     36 C         137.5497  141.5376  157.3471 C.2     1  UNL1        0.0729
     37 O         137.0337  142.3905  156.2263 O.co2   1  UNL1       -0.5446
     38 O         136.8337  140.2726  157.7179 O.co2   1  UNL1       -0.5446
@<TRIPOS>UNITY_ATOM_ATTR
37 1
charge -1
@<TRIPOS>BOND
     1    16    17    1
     2    17     9    1
     3     9    10   ar
     4    10    11   ar
     5    11    12   ar
     6    12    13    1
     7    12    14   ar
     8    14     1    1
     9     1     2    1
    10     2     3    1
    11     3     4    1
    12     4     5   am
    13     5     6    2
    14     5    20    1
    15    20    21   ar
    16    21    22   ar
    17    22    36    1
    18    36    37   ar
    19    36    38   ar
    20    22    23   ar
    21    23    24   ar
    22    24    26    1
    23    26    27   ar
    24    27    28   ar
    25    28    31    1
    26    31    32   ar
    27    32    33   ar
    28    33    34   ar
    29    34    35   ar
    30    28    29   ar
    31    29    30   ar
    32    24    25   ar
    33     4     7    1
    34     7     8    1
    35    14    15   ar
    36    15     9   ar
    37     8     1    1
    38    25    20   ar
    39    30    26   ar
    40    35    31   ar
    41    16    18    1
    42    16    19    1
@<TRIPOS>MOLECULE
*****
 38 42 0 0 0
SMALL
GASTEIGER

@<TRIPOS>ATOM
      1 C         139.1605  139.4207  162.3465 C.3     1  UNL1        0.0279
      2 C         140.3794  138.8310  161.7012 C.3     1  UNL1        0.0260
      3 C         140.4820  138.7716  160.2058 C.3     1  UNL1        0.0940
      4 N         139.3655  139.3020  159.3559 N.am    1  UNL1       -0.2761
      5 C         139.4680  139.2426  157.8606 C.2     1  UNL1        0.2490
      6 O         138.3516  139.7729  157.0107 O.2     1  UNL1       -0.2699
      7 C         138.1466  139.8916  160.0013 C.3     1  UNL1        0.0940
      8 C         138.0441  139.9510  161.4966 C.3     1  UNL1        0.0260
      9 C         138.3036  138.4171  166.0894 C.ar    1  UNL1       -0.0068
     10 C         138.8529  139.5987  166.8325 C.ar    1  UNL1       -0.0006
     11 C         139.5047  140.7209  166.0803 C.ar    1  UNL1        0.0290
     12 C         139.6073  140.6615  164.5850 C.ar    1  UNL1        0.1361
     13 F         140.2591  141.7837  163.8328 F       1  UNL1       -0.2045
     14 C         139.0580  139.4800  163.8419 C.ar    1  UNL1        0.0048
     15 C         138.4062  138.3578  164.5941 C.ar    1  UNL1       -0.0050
     16 N         136.5706  137.5889  167.8388 N.3     1  UNL1       -0.3175
     17 C         137.6518  137.2949  166.8415 C.3     1  UNL1        0.0922
     18 H         136.2432  136.7159  168.2525 H       1  UNL1        0.1192
     19 H         135.7939  138.0555  167.3705 H       1  UNL1        0.1192
     20 C         140.6869  138.6530  157.2152 C.ar    1  UNL1        0.0538
     21 C         141.8684  139.5244  156.9072 C.ar    1  UNL1        0.0056
     22 C         143.0873  138.9346  156.2618 C.ar    1  UNL1        0.0143
     23 C         143.1248  137.4736  155.9245 C.ar    1  UNL1        0.0059
     24 C         141.9433  136.6022  156.2325 C.ar    1  UNL1        0.0563
     25 C         140.7244  137.1918  156.8779 C.ar    1  UNL1        0.0092
     26 C         141.9808  135.1411  155.8951 C.ar    1  UNL1        0.2600
     27 N         143.0166  134.1570  156.3520 N.ar    1  UNL1       -0.1865
     28 C         142.6650  132.8152  155.7809 C.ar    1  UNL1        0.2096
     29 N         141.4118  132.9701  154.9711 N.ar    1  UNL1       -0.0551
     30 O         140.9890  134.4075  155.0417 O.2     1  UNL1       -0.3324
     31 C         143.4318  131.5421  155.9839 C.ar    1  UNL1        0.0685
     32 C         144.2597  130.8372  154.9506 C.ar    1  UNL1        0.0102
     33 C         144.8450  129.6099  155.5840 C.ar    1  UNL1        0.0076
     34 C         144.3788  129.5563  157.0087 C.ar    1  UNL1        0.0355
     35 S         143.5054  130.7505  157.2558 S.2     1  UNL1       -0.0832
     36 C         144.2687  139.8060  155.9538 C.2     1  UNL1        0.0729
     37 O         145.5938  139.1845  155.6254 O.co2   1  UNL1       -0.5446
     38 O         144.1251  141.2990  155.9743 O.co2   1  UNL1       -0.5446
@<TRIPOS>UNITY_ATOM_ATTR
37 1
charge -1
@<TRIPOS>BOND
     1    16    17    1
     2    17     9    1
     3     9    10   ar
     4    10    11   ar
     5    11    12   ar
     6    12    13    1
     7    12    14   ar
     8    14     1    1
     9     1     2    1
    10     2     3    1
    11     3     4    1
    12     4     5   am
    13     5     6    2
    14     5    20    1
    15    20    21   ar
    16    21    22   ar
    17    22    36    1
    18    36    37   ar
    19    36    38   ar
    20    22    23   ar
    21    23    24   ar
    22    24    26    1
    23    26    27   ar
    24    27    28   ar
    25    28    31    1
    26    31    32   ar
    27    32    33   ar
    28    33    34   ar
    29    34    35   ar
    30    28    29   ar
    31    29    30   ar
    32    24    25   ar
    33     4     7    1
    34     7     8    1
    35    14    15   ar
    36    15     9   ar
    37     8     1    1
    38    25    20   ar
    39    30    26   ar
    40    35    31   ar
    41    16    18    1
    42    16    19    1
@<TRIPOS>MOLECULE
*****
 38 42 0 0 0
SMALL
GASTEIGER

@<TRIPOS>ATOM
      1 C         141.0370  139.5069  165.4880 C.3     1  UNL1        0.0279
      2 C         140.7317  140.5704  164.4752 C.3     1  UNL1        0.0260
      3 C         141.0225  140.3293  163.0235 C.3     1  UNL1        0.0940
      4 N         141.6186  139.0246  162.5846 N.am    1  UNL1       -0.2761
      5 C         141.9093  138.7835  161.1330 C.2     1  UNL1        0.2490
      6 O         142.5054  137.4789  160.6941 O.2     1  UNL1       -0.2699
      7 C         141.9239  137.9611  163.5975 C.3     1  UNL1        0.0940
      8 C         141.6331  138.2023  165.0491 C.3     1  UNL1        0.0260
      9 C         141.5843  140.1813  169.3604 C.ar    1  UNL1       -0.0068
     10 C         140.1649  140.2302  169.8430 C.ar    1  UNL1       -0.0006
     11 C         139.0362  140.0380  168.8739 C.ar    1  UNL1        0.0290
     12 C         139.3269  139.7969  167.4222 C.ar    1  UNL1        0.1361
     13 F         138.1982  139.6047  166.4532 F       1  UNL1       -0.2045
     14 C         140.7463  139.7480  166.9397 C.ar    1  UNL1        0.0048
     15 C         141.8750  139.9402  167.9088 C.ar    1  UNL1       -0.0050
     16 N         142.4220  140.6252  171.7793 N.3     1  UNL1       -0.3175
     17 C         142.7129  140.3736  170.3295 C.3     1  UNL1        0.0922
     18 H         143.2993  140.7314  172.2887 H       1  UNL1        0.1192
     19 H         141.8994  139.8377  172.1628 H       1  UNL1        0.1192
     20 C         141.6040  139.8470  160.1202 C.ar    1  UNL1        0.0538
     21 C         142.6015  140.9343  159.8505 C.ar    1  UNL1        0.0056
     22 C         142.2961  141.9978  158.8377 C.ar    1  UNL1        0.0143
     23 C         140.9933  141.9740  158.0947 C.ar    1  UNL1        0.0059
     24 C         139.9958  140.8867  158.3644 C.ar    1  UNL1        0.0563
     25 C         140.3011  139.8232  159.3772 C.ar    1  UNL1        0.0092
     26 C         138.6930  140.8628  157.6214 C.ar    1  UNL1        0.2600
     27 N         138.4633  141.3685  156.2280 N.ar    1  UNL1       -0.1865
     28 C         137.0194  141.1473  155.8867 C.ar    1  UNL1        0.2096
     29 N         136.3568  140.5049  157.0693 N.ar    1  UNL1       -0.0551
     30 O         137.3911  140.3291  158.1413 O.2     1  UNL1       -0.3324
     31 C         136.3549  141.5056  154.5906 C.ar    1  UNL1        0.0685
     32 C         136.3982  142.8459  153.9186 C.ar    1  UNL1        0.0102
     33 C         135.6004  142.7551  152.6516 C.ar    1  UNL1        0.0076
     34 C         135.0641  141.3587  152.5405 C.ar    1  UNL1        0.0355
     35 S         135.5304  140.5864  153.7390 S.2     1  UNL1       -0.0832
     36 C         143.2935  143.0852  158.5679 C.2     1  UNL1        0.0729
     37 O         142.8301  144.5004  158.3886 O.co2   1  UNL1       -0.5446
     38 O         144.7545  142.7572  158.4775 O.co2   1  UNL1       -0.5446
@<TRIPOS>UNITY_ATOM_ATTR
37 1
charge -1
@<TRIPOS>BOND
     1    16    17    1
     2    17     9    1
     3     9    10   ar
     4    10    11   ar
     5    11    12   ar
     6    12    13    1
     7    12    14   ar
     8    14     1    1
     9     1     2    1
    10     2     3    1
    11     3     4    1
    12     4     5   am
    13     5     6    2
    14     5    20    1
    15    20    21   ar
    16    21    22   ar
    17    22    36    1
    18    36    37   ar
    19    36    38   ar
    20    22    23   ar
    21    23    24   ar
    22    24    26    1
    23    26    27   ar
    24    27    28   ar
    25    28    31    1
    26    31    32   ar
    27    32    33   ar
    28    33    34   ar
    29    34    35   ar
    30    28    29   ar
    31    29    30   ar
    32    24    25   ar
    33     4     7    1
    34     7     8    1
    35    14    15   ar
    36    15     9   ar
    37     8     1    1
    38    25    20   ar
    39    30    26   ar
    40    35    31   ar
    41    16    18    1
    42    16    19    1
