@<TRIPOS>MOLECULE
*****
 33 37 0 0 0
SMALL
GASTEIGER

@<TRIPOS>ATOM
      1 C         143.1302  141.4620  162.3449 C.ar    1  UNL1        0.1317
      2 C         144.2825  142.3937  162.1121 C.ar    1  UNL1        0.0346
      3 C         144.8161  142.5945  160.7247 C.ar    1  UNL1        0.0121
      4 C         144.1975  141.8637  159.5701 C.ar    1  UNL1        0.1076
      5 C         143.0452  140.9321  159.8029 C.ar    1  UNL1        0.1080
      6 N         142.5115  140.7312  161.1903 N.ar    1  UNL1       -0.2289
      7 C         140.4619  140.4578  169.2819 C.3     1  UNL1        0.0662
      8 C         139.5790  140.2081  168.0953 C.3     1  UNL1        0.0105
      9 C         140.1127  140.4089  166.7079 C.3     1  UNL1        0.0278
     10 C         141.5292  140.8595  166.5071 C.3     1  UNL1        0.0961
     11 C         142.9457  141.3101  166.3063 C.3     1  UNL1        0.0487
     12 C         143.4794  141.5109  164.9189 C.3     1  UNL1        0.0946
     13 N         142.5965  141.2612  163.7323 N.pl3   1  UNL1       -0.2931
     14 C         141.1800  140.8106  163.9331 C.3     1  UNL1        0.0946
     15 C         140.6464  140.6097  165.3205 C.3     1  UNL1        0.0487
     16 O         142.4121  141.1093  167.6937 O.3     1  UNL1       -0.3580
     17 C         141.8784  140.9084  169.0811 C.3     1  UNL1        0.1474
     18 O         138.6933  139.4337  170.8860 O.co2   1  UNL1       -0.5491
     19 C         139.9283  140.2570  170.6693 C.2     1  UNL1        0.0524
     20 O         140.6296  140.8794  171.8401 O.co2   1  UNL1       -0.5491
     21 C         144.7311  142.0646  158.1827 C.2     1  UNL1        0.3767
     22 N         146.1477  142.4026  157.8233 N.2     1  UNL1       -0.0308
     23 C         146.2340  142.5096  156.3296 C.2     1  UNL1        0.2320
     24 C         147.3777  142.8194  155.4099 C.2     1  UNL1        0.0537
     25 C         147.1583  142.8574  153.9266 C.2     1  UNL1        0.0714
     26 C         145.7951  142.5856  153.3629 C.2     1  UNL1       -0.0133
     27 C         144.6513  142.2757  154.2825 C.3     1  UNL1        0.1037
     28 C         144.8708  142.2377  155.7659 C.2     1  UNL1        0.2178
     29 N         143.9420  141.9627  156.9112 N.2     1  UNL1       -0.0347
     30 C         148.3020  143.1673  153.0069 C.3     1  UNL1        0.4184
     31 F         149.4457  143.4772  152.0872 F       1  UNL1       -0.1659
     32 F         148.0662  144.6349  153.2081 F       1  UNL1       -0.1659
     33 F         148.5379  141.6997  152.8057 F       1  UNL1       -0.1659
@<TRIPOS>UNITY_ATOM_ATTR
18 1
charge -1
@<TRIPOS>BOND
     1    18    19   ar
     2    19    20   ar
     3    19     7    1
     4     7     8    1
     5     8     9    1
     6     9    10    1
     7    10    11    1
     8    11    12    1
     9    12    13    1
    10    13     1    1
    11     1     2   ar
    12     2     3   ar
    13     3     4   ar
    14     4    21    1
    15    21    22    2
    16    22    23    1
    17    23    24    2
    18    24    25    1
    19    25    30    1
    20    30    31    1
    21    30    32    1
    22    30    33    1
    23    25    26    2
    24    26    27    1
    25    27    28    1
    26    28    29    2
    27     4     5   ar
    28     5     6   ar
    29    13    14    1
    30    14    15    1
    31    10    16    1
    32    16    17    1
    33    17     7    1
    34    15    10    1
    35     6     1   ar
    36    29    21    1
    37    28    23    1
@<TRIPOS>MOLECULE
*****
 33 37 0 0 0
SMALL
GASTEIGER

@<TRIPOS>ATOM
      1 C         141.0502  141.2910  155.6982 C.ar    1  UNL1        0.1317
      2 C         140.0785  140.2511  155.2247 C.ar    1  UNL1        0.0346
      3 C         140.4053  138.7950  155.3761 C.ar    1  UNL1        0.0121
      4 C         141.7038  138.3788  156.0010 C.ar    1  UNL1        0.1076
      5 C         142.6755  139.4187  156.4745 C.ar    1  UNL1        0.1080
      6 N         142.3487  140.8748  156.3231 N.ar    1  UNL1       -0.2289
      7 C         139.4164  148.5717  154.9413 C.3     1  UNL1        0.0662
      8 C         140.2768  147.8862  153.9216 C.3     1  UNL1        0.0105
      9 C         140.6036  146.4300  154.0730 C.3     1  UNL1        0.0278
     10 C         140.0699  145.6594  155.2440 C.3     1  UNL1        0.0961
     11 C         139.5363  144.8888  156.4150 C.3     1  UNL1        0.0487
     12 C         139.8630  143.4327  156.5664 C.3     1  UNL1        0.0946
     13 N         140.7235  142.7472  155.5468 N.pl3   1  UNL1       -0.2931
     14 C         141.2571  143.5178  154.3758 C.3     1  UNL1        0.0946
     15 C         140.9304  144.9739  154.2244 C.3     1  UNL1        0.0487
     16 O         139.2095  146.3449  156.2637 O.3     1  UNL1       -0.3580
     17 C         138.8827  147.8011  156.1123 C.3     1  UNL1        0.1474
     18 O         139.7737  150.8441  153.7337 O.co2   1  UNL1       -0.5491
     19 C         139.0896  150.0278  154.7899 C.2     1  UNL1        0.0524
     20 O         138.0788  150.6676  155.6947 O.co2   1  UNL1       -0.5491
     21 C         142.0305  136.9227  156.1524 C.2     1  UNL1        0.3767
     22 N         143.1034  136.3462  157.0280 N.2     1  UNL1       -0.0308
     23 C         143.0777  134.8546  156.8715 C.2     1  UNL1        0.2320
     24 C         143.9051  133.7663  157.4888 C.2     1  UNL1        0.0537
     25 C         143.6437  132.3326  157.1337 C.2     1  UNL1        0.0714
     26 C         142.5550  131.9872  156.1614 C.2     1  UNL1       -0.0133
     27 C         141.7277  133.0755  155.5441 C.3     1  UNL1        0.1037
     28 C         141.9890  134.5092  155.8992 C.2     1  UNL1        0.2178
     29 N         141.3418  135.7873  155.4547 N.2     1  UNL1       -0.0347
     30 C         144.4710  131.2442  157.7510 C.3     1  UNL1        0.4184
     31 F         145.2984  130.1559  158.3682 F       1  UNL1       -0.1659
     32 F         145.5233  132.2497  158.1135 F       1  UNL1       -0.1659
     33 F         143.4188  130.2386  157.3885 F       1  UNL1       -0.1659
@<TRIPOS>UNITY_ATOM_ATTR
18 1
charge -1
@<TRIPOS>BOND
     1    18    19   ar
     2    19    20   ar
     3    19     7    1
     4     7     8    1
     5     8     9    1
     6     9    10    1
     7    10    11    1
     8    11    12    1
     9    12    13    1
    10    13     1    1
    11     1     2   ar
    12     2     3   ar
    13     3     4   ar
    14     4    21    1
    15    21    22    2
    16    22    23    1
    17    23    24    2
    18    24    25    1
    19    25    30    1
    20    30    31    1
    21    30    32    1
    22    30    33    1
    23    25    26    2
    24    26    27    1
    25    27    28    1
    26    28    29    2
    27     4     5   ar
    28     5     6   ar
    29    13    14    1
    30    14    15    1
    31    10    16    1
    32    16    17    1
    33    17     7    1
    34    15    10    1
    35     6     1   ar
    36    29    21    1
    37    28    23    1
@<TRIPOS>MOLECULE
*****
 33 37 0 0 0
SMALL
GASTEIGER

@<TRIPOS>ATOM
      1 C         140.5290  143.4580  155.3845 C.ar    1  UNL1        0.1317
      2 C         141.7400  142.8851  154.7097 C.ar    1  UNL1        0.0346
      3 C         142.0489  141.4229  154.8383 C.ar    1  UNL1        0.0121
      4 C         141.1468  140.5335  155.6416 C.ar    1  UNL1        0.1076
      5 C         139.9358  141.1064  156.3164 C.ar    1  UNL1        0.1080
      6 N         139.6269  142.5687  156.1878 N.ar    1  UNL1       -0.2289
      7 C         138.9845  150.7690  154.7416 C.3     1  UNL1        0.0662
      8 C         139.7813  150.0744  153.6774 C.3     1  UNL1        0.0105
      9 C         140.0902  148.6121  153.8059 C.3     1  UNL1        0.0278
     10 C         139.6023  147.8446  154.9987 C.3     1  UNL1        0.0961
     11 C         139.1144  147.0770  156.1915 C.3     1  UNL1        0.0487
     12 C         139.4233  145.6148  156.3201 C.3     1  UNL1        0.0946
     13 N         140.2201  144.9202  155.2559 N.pl3   1  UNL1       -0.2931
     14 C         140.7080  145.6877  154.0631 C.3     1  UNL1        0.0946
     15 C         140.3991  147.1499  153.9345 C.3     1  UNL1        0.0487
     16 O         138.8055  148.5392  156.0629 O.3     1  UNL1       -0.3580
     17 C         138.4967  150.0014  155.9343 C.3     1  UNL1        0.1474
     18 O         138.8422  153.1397  155.7948 O.co2   1  UNL1       -0.5491
     19 C         138.6756  152.2312  154.6130 C.2     1  UNL1        0.0524
     20 O         138.2002  152.7849  153.3025 O.co2   1  UNL1       -0.5491
     21 C         141.4557  139.0713  155.7702 C.2     1  UNL1        0.3767
     22 N         142.4995  138.4657  156.6611 N.2     1  UNL1       -0.0308
     23 C         142.4639  136.9781  156.4720 C.2     1  UNL1        0.2320
     24 C         143.2643  135.8687  157.0872 C.2     1  UNL1        0.0537
     25 C         142.9989  134.4455  156.6947 C.2     1  UNL1        0.0714
     26 C         141.9331  134.1318  155.6869 C.2     1  UNL1       -0.0133
     27 C         141.1327  135.2412  155.0717 C.3     1  UNL1        0.1037
     28 C         141.3981  136.6643  155.4642 C.2     1  UNL1        0.2178
     29 N         140.7750  137.9580  155.0305 N.2     1  UNL1       -0.0347
     30 C         143.7993  133.3361  157.3099 C.3     1  UNL1        0.4184
     31 F         144.5997  132.2267  157.9252 F       1  UNL1       -0.1659
     32 F         143.7245  134.0210  158.6423 F       1  UNL1       -0.1659
     33 F         143.8742  132.6512  155.9776 F       1  UNL1       -0.1659
@<TRIPOS>UNITY_ATOM_ATTR
18 1
charge -1
@<TRIPOS>BOND
     1    18    19   ar
     2    19    20   ar
     3    19     7    1
     4     7     8    1
     5     8     9    1
     6     9    10    1
     7    10    11    1
     8    11    12    1
     9    12    13    1
    10    13     1    1
    11     1     2   ar
    12     2     3   ar
    13     3     4   ar
    14     4    21    1
    15    21    22    2
    16    22    23    1
    17    23    24    2
    18    24    25    1
    19    25    30    1
    20    30    31    1
    21    30    32    1
    22    30    33    1
    23    25    26    2
    24    26    27    1
    25    27    28    1
    26    28    29    2
    27     4     5   ar
    28     5     6   ar
    29    13    14    1
    30    14    15    1
    31    10    16    1
    32    16    17    1
    33    17     7    1
    34    15    10    1
    35     6     1   ar
    36    29    21    1
    37    28    23    1
@<TRIPOS>MOLECULE
*****
 33 37 0 0 0
SMALL
GASTEIGER

@<TRIPOS>ATOM
      1 C         142.0910  136.7172  157.2932 C.ar    1  UNL1        0.1317
      2 C         140.8606  137.4966  156.9345 C.ar    1  UNL1        0.0346
      3 C         140.5087  138.7372  157.7007 C.ar    1  UNL1        0.0121
      4 C         141.3873  139.1985  158.8255 C.ar    1  UNL1        0.1076
      5 C         142.6177  138.4192  159.1842 C.ar    1  UNL1        0.1080
      6 N         142.9696  137.1785  158.4180 N.ar    1  UNL1       -0.2289
      7 C         143.8504  130.5141  153.4623 C.3     1  UNL1        0.0662
      8 C         144.4097  130.7304  154.8372 C.3     1  UNL1        0.0105
      9 C         144.0578  131.9711  155.6034 C.3     1  UNL1        0.0278
     10 C         143.1466  132.9954  154.9946 C.3     1  UNL1        0.0961
     11 C         142.2355  134.0197  154.3859 C.3     1  UNL1        0.0487
     12 C         141.8836  135.2603  155.1521 C.3     1  UNL1        0.0946
     13 N         142.4429  135.4766  156.5270 N.pl3   1  UNL1       -0.2931
     14 C         143.3541  134.4523  157.1357 C.3     1  UNL1        0.0946
     15 C         143.7059  133.2117  156.3695 C.3     1  UNL1        0.0487
     16 O         142.5874  132.7790  153.6198 O.3     1  UNL1       -0.3580
     17 C         142.9392  131.5384  152.8536 C.3     1  UNL1        0.1474
     18 O         143.1339  128.5141  151.9668 O.co2   1  UNL1       -0.5491
     19 C         144.2023  129.2735  152.6961 C.2     1  UNL1        0.0524
     20 O         145.6225  128.7923  152.6592 O.co2   1  UNL1       -0.5491
     21 C         141.0354  140.4391  159.5917 C.2     1  UNL1        0.3767
     22 N         140.5736  140.4935  161.0178 N.2     1  UNL1       -0.0308
     23 C         140.3363  141.9312  161.3738 C.2     1  UNL1        0.2320
     24 C         139.8740  142.5884  162.6404 C.2     1  UNL1        0.0537
     25 C         139.7269  144.0799  162.7008 C.2     1  UNL1        0.0714
     26 C         140.0421  144.9142  161.4947 C.2     1  UNL1       -0.0133
     27 C         140.5044  144.2569  160.2282 C.3     1  UNL1        0.1037
     28 C         140.6515  142.7654  160.1677 C.2     1  UNL1        0.2178
     29 N         141.0835  141.8433  159.0663 N.2     1  UNL1       -0.0347
     30 C         139.2645  144.7373  163.9674 C.3     1  UNL1        0.4184
     31 F         138.8022  145.3946  165.2340 F       1  UNL1       -0.1659
     32 F         137.8377  144.5381  163.5499 F       1  UNL1       -0.1659
     33 F         140.6914  144.9364  164.3850 F       1  UNL1       -0.1659
@<TRIPOS>UNITY_ATOM_ATTR
18 1
charge -1
@<TRIPOS>BOND
     1    18    19   ar
     2    19    20   ar
     3    19     7    1
     4     7     8    1
     5     8     9    1
     6     9    10    1
     7    10    11    1
     8    11    12    1
     9    12    13    1
    10    13     1    1
    11     1     2   ar
    12     2     3   ar
    13     3     4   ar
    14     4    21    1
    15    21    22    2
    16    22    23    1
    17    23    24    2
    18    24    25    1
    19    25    30    1
    20    30    31    1
    21    30    32    1
    22    30    33    1
    23    25    26    2
    24    26    27    1
    25    27    28    1
    26    28    29    2
    27     4     5   ar
    28     5     6   ar
    29    13    14    1
    30    14    15    1
    31    10    16    1
    32    16    17    1
    33    17     7    1
    34    15    10    1
    35     6     1   ar
    36    29    21    1
    37    28    23    1
@<TRIPOS>MOLECULE
*****
 33 37 0 0 0
SMALL
GASTEIGER

@<TRIPOS>ATOM
      1 C         141.4560  139.5387  155.5742 C.ar    1  UNL1        0.1317
      2 C         140.0513  140.0595  155.6495 C.ar    1  UNL1        0.0346
      3 C         139.7810  141.5203  155.4424 C.ar    1  UNL1        0.0121
      4 C         140.9152  142.4603  155.1600 C.ar    1  UNL1        0.1076
      5 C         142.3199  141.9395  155.0847 C.ar    1  UNL1        0.1080
      6 N         142.5902  140.4787  155.2918 N.ar    1  UNL1       -0.2289
      7 C         142.8077  132.2345  156.6097 C.3     1  UNL1        0.0662
      8 C         141.7917  132.6730  155.5971 C.3     1  UNL1        0.0105
      9 C         141.5214  134.1339  155.3900 C.3     1  UNL1        0.0278
     10 C         142.2670  135.1562  156.1955 C.3     1  UNL1        0.0961
     11 C         143.0127  136.1785  157.0010 C.3     1  UNL1        0.0487
     12 C         142.7423  137.6393  156.7939 C.3     1  UNL1        0.0946
     13 N         141.7263  138.0778  155.7813 N.pl3   1  UNL1       -0.2931
     14 C         140.9807  137.0555  154.9758 C.3     1  UNL1        0.0946
     15 C         141.2510  135.5947  155.1829 C.3     1  UNL1        0.0487
     16 O         143.2830  134.7176  157.2081 O.3     1  UNL1       -0.3580
     17 C         143.5534  133.2568  157.4152 C.3     1  UNL1        0.1474
     18 O         142.4018  129.7552  155.9477 O.co2   1  UNL1       -0.5491
     19 C         143.0781  130.7737  156.8168 C.2     1  UNL1        0.0524
     20 O         144.0248  130.3313  157.8929 O.co2   1  UNL1       -0.5491
     21 C         140.6449  143.9211  154.9530 C.2     1  UNL1        0.3767
     22 N         139.8221  144.8009  155.8468 N.2     1  UNL1       -0.0308
     23 C         139.8185  146.1822  155.2619 C.2     1  UNL1        0.2320
     24 C         139.1741  147.4603  155.7103 C.2     1  UNL1        0.0537
     25 C         139.3503  148.7124  154.9033 C.2     1  UNL1        0.0714
     26 C         140.1709  148.6863  153.6479 C.2     1  UNL1       -0.0133
     27 C         140.8153  147.4082  153.1996 C.3     1  UNL1        0.1037
     28 C         140.6392  146.1561  154.0066 C.2     1  UNL1        0.2178
     29 N         141.1499  144.7587  153.8156 N.2     1  UNL1       -0.0347
     30 C         138.7058  149.9906  155.3516 C.3     1  UNL1        0.4184
     31 F         138.0614  151.2687  155.7998 F       1  UNL1       -0.1659
     32 F         139.0290  150.6177  154.0279 F       1  UNL1       -0.1659
     33 F         138.3827  149.3635  156.6753 F       1  UNL1       -0.1659
@<TRIPOS>UNITY_ATOM_ATTR
18 1
charge -1
@<TRIPOS>BOND
     1    18    19   ar
     2    19    20   ar
     3    19     7    1
     4     7     8    1
     5     8     9    1
     6     9    10    1
     7    10    11    1
     8    11    12    1
     9    12    13    1
    10    13     1    1
    11     1     2   ar
    12     2     3   ar
    13     3     4   ar
    14     4    21    1
    15    21    22    2
    16    22    23    1
    17    23    24    2
    18    24    25    1
    19    25    30    1
    20    30    31    1
    21    30    32    1
    22    30    33    1
    23    25    26    2
    24    26    27    1
    25    27    28    1
    26    28    29    2
    27     4     5   ar
    28     5     6   ar
    29    13    14    1
    30    14    15    1
    31    10    16    1
    32    16    17    1
    33    17     7    1
    34    15    10    1
    35     6     1   ar
    36    29    21    1
    37    28    23    1
@<TRIPOS>MOLECULE
*****
 33 37 0 0 0
SMALL
GASTEIGER

@<TRIPOS>ATOM
      1 C         141.4605  139.4045  155.6466 C.ar    1  UNL1        0.1317
      2 C         142.5612  140.3360  155.2333 C.ar    1  UNL1        0.0346
      3 C         142.2771  141.7971  155.0477 C.ar    1  UNL1        0.0121
      4 C         140.8924  142.3267  155.2753 C.ar    1  UNL1        0.1076
      5 C         139.7917  141.3953  155.6886 C.ar    1  UNL1        0.1080
      6 N         140.0758  139.9342  155.8742 N.ar    1  UNL1       -0.2289
      7 C         142.8809  132.0990  156.5746 C.3     1  UNL1        0.0662
      8 C         143.6584  133.1189  157.3526 C.3     1  UNL1        0.0105
      9 C         143.3743  134.5800  157.1669 C.3     1  UNL1        0.0278
     10 C         142.3128  135.0212  156.2034 C.3     1  UNL1        0.0961
     11 C         141.2512  135.4624  155.2399 C.3     1  UNL1        0.0487
     12 C         140.9671  136.9235  155.0543 C.3     1  UNL1        0.0946
     13 N         141.7446  137.9434  155.8322 N.pl3   1  UNL1       -0.2931
     14 C         142.8061  137.5022  156.7957 C.3     1  UNL1        0.0946
     15 C         143.0902  136.0411  156.9813 C.3     1  UNL1        0.0487
     16 O         141.5353  134.0012  155.4255 O.3     1  UNL1       -0.3580
     17 C         141.8194  132.5401  155.6111 C.3     1  UNL1        0.1474
     18 O         144.3220  130.2006  157.6089 O.co2   1  UNL1       -0.5491
     19 C         143.1650  130.6379  156.7602 C.2     1  UNL1        0.0524
     20 O         142.2921  129.6140  156.0972 O.co2   1  UNL1       -0.5491
     21 C         140.6083  143.7879  155.0897 C.2     1  UNL1        0.3767
     22 N         139.7954  144.6516  156.0079 N.2     1  UNL1       -0.0308
     23 C         139.7719  146.0394  155.4390 C.2     1  UNL1        0.2320
     24 C         139.1267  147.3077  155.9132 C.2     1  UNL1        0.0537
     25 C         139.2799  148.5700  155.1175 C.2     1  UNL1        0.0714
     26 C         140.0783  148.5639  153.8477 C.2     1  UNL1       -0.0133
     27 C         140.7236  147.2956  153.3735 C.3     1  UNL1        0.1037
     28 C         140.5704  146.0333  154.1692 C.2     1  UNL1        0.2178
     29 N         141.0872  144.6418  153.9533 N.2     1  UNL1       -0.0347
     30 C         138.6346  149.8385  155.5917 C.3     1  UNL1        0.4184
     31 F         137.9894  151.1068  156.0659 F       1  UNL1       -0.1659
     32 F         138.3644  149.2031  156.9233 F       1  UNL1       -0.1659
     33 F         138.9049  150.4738  154.2600 F       1  UNL1       -0.1659
@<TRIPOS>UNITY_ATOM_ATTR
18 1
charge -1
@<TRIPOS>BOND
     1    18    19   ar
     2    19    20   ar
     3    19     7    1
     4     7     8    1
     5     8     9    1
     6     9    10    1
     7    10    11    1
     8    11    12    1
     9    12    13    1
    10    13     1    1
    11     1     2   ar
    12     2     3   ar
    13     3     4   ar
    14     4    21    1
    15    21    22    2
    16    22    23    1
    17    23    24    2
    18    24    25    1
    19    25    30    1
    20    30    31    1
    21    30    32    1
    22    30    33    1
    23    25    26    2
    24    26    27    1
    25    27    28    1
    26    28    29    2
    27     4     5   ar
    28     5     6   ar
    29    13    14    1
    30    14    15    1
    31    10    16    1
    32    16    17    1
    33    17     7    1
    34    15    10    1
    35     6     1   ar
    36    29    21    1
    37    28    23    1
@<TRIPOS>MOLECULE
*****
 33 37 0 0 0
SMALL
GASTEIGER

@<TRIPOS>ATOM
      1 C         140.9200  139.8945  163.5258 C.ar    1  UNL1        0.1317
      2 C         140.2410  139.7327  162.1981 C.ar    1  UNL1        0.0346
      3 C         141.0075  139.9670  160.9302 C.ar    1  UNL1        0.0121
      4 C         142.4529  140.3633  160.9900 C.ar    1  UNL1        0.1076
      5 C         143.1319  140.5252  162.3176 C.ar    1  UNL1        0.1080
      6 N         142.3654  140.2908  163.5855 N.ar    1  UNL1       -0.2289
      7 C         137.0877  138.7226  169.8653 C.3     1  UNL1        0.0662
      8 C         136.6515  138.0606  168.5920 C.3     1  UNL1        0.0105
      9 C         137.4180  138.2949  167.3241 C.3     1  UNL1        0.0278
     10 C         138.6206  139.1914  167.3295 C.3     1  UNL1        0.0961
     11 C         139.8232  140.0879  167.3349 C.3     1  UNL1        0.0487
     12 C         140.5897  140.3222  166.0670 C.3     1  UNL1        0.0946
     13 N         140.1535  139.6602  164.7937 N.pl3   1  UNL1       -0.2931
     14 C         138.9509  138.7637  164.7883 C.3     1  UNL1        0.0946
     15 C         138.1845  138.5293  166.0562 C.3     1  UNL1        0.0487
     16 O         139.0567  139.8535  168.6028 O.3     1  UNL1       -0.3580
     17 C         138.2902  139.6191  169.8707 C.3     1  UNL1        0.1474
     18 O         136.1585  137.0951  171.6646 O.co2   1  UNL1       -0.5491
     19 C         136.3212  138.4883  171.1332 C.2     1  UNL1        0.0524
     20 O         135.7175  139.6471  171.8698 O.co2   1  UNL1       -0.5491
     21 C         143.2194  140.5977  159.7220 C.2     1  UNL1        0.3767
     22 N         144.2109  141.6972  159.4816 N.2     1  UNL1       -0.0308
     23 C         144.7332  141.5528  158.0829 C.2     1  UNL1        0.2320
     24 C         145.7314  142.3502  157.2969 C.2     1  UNL1        0.0537
     25 C         146.0608  141.9587  155.8869 C.2     1  UNL1        0.0714
     26 C         145.3921  140.7698  155.2629 C.2     1  UNL1       -0.0133
     27 C         144.3939  139.9724  156.0489 C.3     1  UNL1        0.1037
     28 C         144.0645  140.3639  157.4589 C.2     1  UNL1        0.2178
     29 N         143.1289  139.7736  158.4719 N.2     1  UNL1       -0.0347
     30 C         147.0589  142.7561  155.1008 C.3     1  UNL1        0.4184
     31 F         148.0570  143.5536  154.3147 F       1  UNL1       -0.1659
     32 F         145.9400  143.5055  154.4403 F       1  UNL1       -0.1659
     33 F         148.1779  142.0068  155.7613 F       1  UNL1       -0.1659
@<TRIPOS>UNITY_ATOM_ATTR
18 1
charge -1
@<TRIPOS>BOND
     1    18    19   ar
     2    19    20   ar
     3    19     7    1
     4     7     8    1
     5     8     9    1
     6     9    10    1
     7    10    11    1
     8    11    12    1
     9    12    13    1
    10    13     1    1
    11     1     2   ar
    12     2     3   ar
    13     3     4   ar
    14     4    21    1
    15    21    22    2
    16    22    23    1
    17    23    24    2
    18    24    25    1
    19    25    30    1
    20    30    31    1
    21    30    32    1
    22    30    33    1
    23    25    26    2
    24    26    27    1
    25    27    28    1
    26    28    29    2
    27     4     5   ar
    28     5     6   ar
    29    13    14    1
    30    14    15    1
    31    10    16    1
    32    16    17    1
    33    17     7    1
    34    15    10    1
    35     6     1   ar
    36    29    21    1
    37    28    23    1
@<TRIPOS>MOLECULE
*****
 33 37 0 0 0
SMALL
GASTEIGER

@<TRIPOS>ATOM
      1 C         142.2467  140.4408  161.8774 C.ar    1  UNL1        0.1317
      2 C         142.2469  141.7961  161.2346 C.ar    1  UNL1        0.0346
      3 C         143.0353  142.0312  159.9803 C.ar    1  UNL1        0.0121
      4 C         143.8234  140.9110  159.3688 C.ar    1  UNL1        0.1076
      5 C         143.8232  139.5558  160.0116 C.ar    1  UNL1        0.1080
      6 N         143.0349  139.3207  161.2658 N.ar    1  UNL1       -0.2289
      7 C         138.3050  139.2653  168.1488 C.3     1  UNL1        0.0662
      8 C         137.8261  138.6995  166.8448 C.3     1  UNL1        0.0105
      9 C         138.6144  138.9346  165.5905 C.3     1  UNL1        0.0278
     10 C         139.8817  139.7355  165.6402 C.3     1  UNL1        0.0961
     11 C         141.1489  140.5365  165.6899 C.3     1  UNL1        0.0487
     12 C         141.9373  140.7716  164.4356 C.3     1  UNL1        0.0946
     13 N         141.4584  140.2057  163.1316 N.pl3   1  UNL1       -0.2931
     14 C         140.1911  139.4048  163.0819 C.3     1  UNL1        0.0946
     15 C         139.4028  139.1697  164.3362 C.3     1  UNL1        0.0487
     16 O         140.3606  140.3014  166.9442 O.3     1  UNL1       -0.3580
     17 C         139.5722  140.0663  168.1985 C.3     1  UNL1        0.1474
     18 O         136.4254  138.0012  169.4213 O.co2   1  UNL1       -0.5491
     19 C         137.5166  139.0302  169.4031 C.2     1  UNL1        0.0524
     20 O         137.8194  139.8241  170.6391 O.co2   1  UNL1       -0.5491
     21 C         144.6118  141.1461  158.1145 C.2     1  UNL1        0.3767
     22 N         145.6030  142.2493  157.8899 N.2     1  UNL1       -0.0308
     23 C         146.1512  142.1043  156.5012 C.2     1  UNL1        0.2320
     24 C         147.1601  142.9043  155.7318 C.2     1  UNL1        0.0537
     25 C         147.5166  142.5115  154.3287 C.2     1  UNL1        0.0714
     26 C         146.8641  141.3187  153.6951 C.2     1  UNL1       -0.0133
     27 C         145.8552  140.5187  154.4645 C.3     1  UNL1        0.1037
     28 C         145.4987  140.9115  155.8675 C.2     1  UNL1        0.2178
     29 N         144.5473  140.3193  156.8646 N.2     1  UNL1       -0.0347
     30 C         148.5256  143.3115  153.5593 C.3     1  UNL1        0.4184
     31 F         149.5345  144.1115  152.7899 F       1  UNL1       -0.1659
     32 F         147.4549  144.2873  153.1700 F       1  UNL1       -0.1659
     33 F         149.5962  142.3358  153.9486 F       1  UNL1       -0.1659
@<TRIPOS>UNITY_ATOM_ATTR
18 1
charge -1
@<TRIPOS>BOND
     1    18    19   ar
     2    19    20   ar
     3    19     7    1
     4     7     8    1
     5     8     9    1
     6     9    10    1
     7    10    11    1
     8    11    12    1
     9    12    13    1
    10    13     1    1
    11     1     2   ar
    12     2     3   ar
    13     3     4   ar
    14     4    21    1
    15    21    22    2
    16    22    23    1
    17    23    24    2
    18    24    25    1
    19    25    30    1
    20    30    31    1
    21    30    32    1
    22    30    33    1
    23    25    26    2
    24    26    27    1
    25    27    28    1
    26    28    29    2
    27     4     5   ar
    28     5     6   ar
    29    13    14    1
    30    14    15    1
    31    10    16    1
    32    16    17    1
    33    17     7    1
    34    15    10    1
    35     6     1   ar
    36    29    21    1
    37    28    23    1
@<TRIPOS>MOLECULE
*****
 33 37 0 0 0
SMALL
GASTEIGER

@<TRIPOS>ATOM
      1 C         139.4868  141.0544  155.8141 C.ar    1  UNL1        0.1317
      2 C         138.7467  140.1346  154.8888 C.ar    1  UNL1        0.0346
      3 C         137.2568  139.9999  154.9985 C.ar    1  UNL1        0.0121
      4 C         136.5070  140.7848  156.0337 C.ar    1  UNL1        0.1076
      5 C         137.2470  141.7045  156.9590 C.ar    1  UNL1        0.1080
      6 N         138.7369  141.8393  156.8493 N.ar    1  UNL1       -0.2289
      7 C         146.9362  141.7282  155.2653 C.3     1  UNL1        0.0662
      8 C         146.1360  141.2651  154.0842 C.3     1  UNL1        0.0105
      9 C         144.6461  141.1303  154.1939 C.3     1  UNL1        0.0278
     10 C         143.9564  141.4587  155.4848 C.3     1  UNL1        0.0961
     11 C         143.2668  141.7870  156.7757 C.3     1  UNL1        0.0487
     12 C         141.7769  141.6522  156.8855 C.3     1  UNL1        0.0946
     13 N         140.9766  141.1891  155.7044 N.pl3   1  UNL1       -0.2931
     14 C         141.6663  140.8608  154.4135 C.3     1  UNL1        0.0946
     15 C         143.1562  140.9956  154.3037 C.3     1  UNL1        0.0487
     16 O         144.7567  141.9218  156.6660 O.3     1  UNL1       -0.3580
     17 C         146.2465  142.0566  156.5562 C.3     1  UNL1        0.1474
     18 O         149.2573  142.0294  156.3930 O.co2   1  UNL1       -0.5491
     19 C         148.4261  141.8630  155.1556 C.2     1  UNL1        0.0524
     20 O         149.0848  141.8313  153.8083 O.co2   1  UNL1       -0.5491
     21 C         135.0171  140.6501  156.1434 C.2     1  UNL1        0.3767
     22 N         134.2812  139.7201  157.0619 N.2     1  UNL1       -0.0308
     23 C         132.8108  139.9168  156.8401 C.2     1  UNL1        0.2320
     24 C         131.6070  139.2743  157.4630 C.2     1  UNL1        0.0537
     25 C         130.2303  139.6834  157.0302 C.2     1  UNL1        0.0714
     26 C         130.0574  140.7351  155.9747 C.2     1  UNL1       -0.0133
     27 C         131.2612  141.3776  155.3519 C.3     1  UNL1        0.1037
     28 C         132.6379  140.9685  155.7846 C.2     1  UNL1        0.2178
     29 N         134.0014  141.4216  155.3540 N.2     1  UNL1       -0.0347
     30 C         129.0264  139.0409  157.6531 C.3     1  UNL1        0.4184
     31 F         127.8225  138.3984  158.2759 F       1  UNL1       -0.1659
     32 F         129.6156  137.6860  157.3943 F       1  UNL1       -0.1659
     33 F         128.4371  140.3958  157.9119 F       1  UNL1       -0.1659
@<TRIPOS>UNITY_ATOM_ATTR
18 1
charge -1
@<TRIPOS>BOND
     1    18    19   ar
     2    19    20   ar
     3    19     7    1
     4     7     8    1
     5     8     9    1
     6     9    10    1
     7    10    11    1
     8    11    12    1
     9    12    13    1
    10    13     1    1
    11     1     2   ar
    12     2     3   ar
    13     3     4   ar
    14     4    21    1
    15    21    22    2
    16    22    23    1
    17    23    24    2
    18    24    25    1
    19    25    30    1
    20    30    31    1
    21    30    32    1
    22    30    33    1
    23    25    26    2
    24    26    27    1
    25    27    28    1
    26    28    29    2
    27     4     5   ar
    28     5     6   ar
    29    13    14    1
    30    14    15    1
    31    10    16    1
    32    16    17    1
    33    17     7    1
    34    15    10    1
    35     6     1   ar
    36    29    21    1
    37    28    23    1
