@<TRIPOS>MOLECULE
*****
 38 42 0 0 0
SMALL
GASTEIGER

@<TRIPOS>ATOM
      1 C         140.4812  138.3304  161.5883 C.3     1  UNL1        0.0758
      2 C         141.9456  138.0275  161.4712 C.3     1  UNL1        0.0370
      3 C         142.6101  138.0459  160.1266 C.3     1  UNL1        0.0741
      4 N         141.8102  138.3672  158.8990 N.3     1  UNL1       -0.2688
      5 C         140.3458  138.6701  159.0161 C.3     1  UNL1        0.0741
      6 C         139.6813  138.6517  160.3607 C.3     1  UNL1        0.0370
      7 O         141.1885  140.4021  163.6396 O.2     1  UNL1       -0.2526
      8 C         140.1703  139.3478  163.9585 C.2     1  UNL1        0.3039
      9 N         139.8167  138.3120  162.9329 N.am    1  UNL1       -0.2903
     10 N         139.5057  139.3294  165.3032 N.am    1  UNL1       -0.2655
     11 C         138.4743  138.3422  165.7634 C.3     1  UNL1        0.0949
     12 C         138.0870  138.6976  167.1684 C.3     1  UNL1        0.0233
     13 C         138.8791  139.9044  167.5764 C.3     1  UNL1        0.0220
     14 C         139.7559  140.2948  166.4236 C.3     1  UNL1        0.0813
     15 H         139.1484  137.6200  163.1423 H       1  UNL1        0.1509
     16 C         140.7145  141.4482  166.3961 C.3     1  UNL1        0.0478
     17 C         141.3072  141.9616  167.6749 C.ar    1  UNL1       -0.0014
     18 C         142.6541  141.4783  168.1245 C.ar    1  UNL1       -0.0011
     19 C         143.2466  141.9917  169.4033 C.ar    1  UNL1        0.0204
     20 C         142.4923  142.9884  170.2324 C.ar    1  UNL1        0.0989
     21 N         141.1454  143.4717  169.7828 N.ar    1  UNL1       -0.2426
     22 C         140.5528  142.9583  168.5040 C.ar    1  UNL1        0.0946
     23 C         142.4747  138.3856  157.5543 C.3     1  UNL1        0.1007
     24 C         142.9752  137.1084  156.9475 C.ar    1  UNL1        0.0129
     25 C         143.6264  136.9666  155.6037 C.ar    1  UNL1        0.0176
     26 C         143.9659  135.5193  155.4036 C.ar    1  UNL1        0.0799
     27 N         143.5246  134.7666  156.6238 N.ar    1  UNL1       -0.3038
     28 C         142.9123  135.7488  157.5779 C.ar    1  UNL1        0.0772
     29 C         143.6700  133.2909  156.8500 C.ar    1  UNL1        0.0640
     30 C         142.6789  132.3388  156.2492 C.ar    1  UNL1        0.0175
     31 C         142.8244  130.8631  156.4755 C.ar    1  UNL1        0.0053
     32 C         143.9609  130.3396  157.3024 C.ar    1  UNL1        0.0715
     33 C         144.9521  131.2917  157.9033 C.ar    1  UNL1        0.0053
     34 C         144.8067  132.7674  157.6770 C.ar    1  UNL1        0.0175
     35 C         144.1064  128.8639  157.5287 C.3     1  UNL1        0.4186
     36 F         144.2518  127.3882  157.7550 F       1  UNL1       -0.1659
     37 F         145.1059  128.7913  156.4126 F       1  UNL1       -0.1659
     38 F         143.1068  128.9365  158.6448 F       1  UNL1       -0.1659
@<TRIPOS>BOND
     1     7     8    2
     2     8     9   am
     3     9     1    1
     4     1     2    1
     5     2     3    1
     6     3     4    1
     7     4    23    1
     8    23    24    1
     9    24    25   ar
    10    25    26   ar
    11    26    27   ar
    12    27    29    1
    13    29    30   ar
    14    30    31   ar
    15    31    32   ar
    16    32    35    1
    17    35    36    1
    18    35    37    1
    19    35    38    1
    20    32    33   ar
    21    33    34   ar
    22    27    28   ar
    23     4     5    1
    24     5     6    1
    25     8    10   am
    26    10    11    1
    27    11    12    1
    28    12    13    1
    29    13    14    1
    30    14    16    1
    31    16    17    1
    32    17    18   ar
    33    18    19   ar
    34    19    20   ar
    35    20    21   ar
    36    21    22   ar
    37     6     1    1
    38    14    10    1
    39    22    17   ar
    40    28    24   ar
    41    34    29   ar
    42     9    15    1
@<TRIPOS>MOLECULE
*****
 38 42 0 0 0
SMALL
GASTEIGER

@<TRIPOS>ATOM
      1 C         139.6480  141.2532  161.0426 C.3     1  UNL1        0.0758
      2 C         138.6836  142.1656  160.3446 C.3     1  UNL1        0.0370
      3 C         139.0390  142.7544  159.0116 C.3     1  UNL1        0.0741
      4 N         140.3588  142.4306  158.3765 N.3     1  UNL1       -0.2688
      5 C         141.3232  141.5181  159.0745 C.3     1  UNL1        0.0741
      6 C         140.9678  140.9294  160.4076 C.3     1  UNL1        0.0370
      7 O         140.7998  142.4223  163.5539 O.2     1  UNL1       -0.2526
      8 C         139.8685  141.2490  163.6313 C.2     1  UNL1        0.3039
      9 N         139.2926  140.6644  162.3757 N.am    1  UNL1       -0.2903
     10 N         139.5132  140.6602  164.9645 N.am    1  UNL1       -0.2655
     11 C         138.6003  139.4930  165.1976 C.3     1  UNL1        0.0949
     12 C         138.5312  139.2466  166.6757 C.3     1  UNL1        0.0233
     13 C         139.4014  140.2616  167.3559 C.3     1  UNL1        0.0220
     14 C         140.0083  141.1352  166.2983 C.3     1  UNL1        0.0813
     15 H         138.6814  139.8943  162.4266 H       1  UNL1        0.1509
     16 C         140.9456  142.2824  166.5333 C.3     1  UNL1        0.0478
     17 C         141.5322  142.5047  167.8958 C.ar    1  UNL1       -0.0014
     18 C         142.9285  142.0456  168.1954 C.ar    1  UNL1       -0.0011
     19 C         143.5150  142.2680  169.5579 C.ar    1  UNL1        0.0204
     20 C         142.7053  142.9493  170.6210 C.ar    1  UNL1        0.0989
     21 N         141.3090  143.4084  170.3214 N.ar    1  UNL1       -0.2426
     22 C         140.7225  143.1861  168.9589 C.ar    1  UNL1        0.0946
     23 C         140.7142  143.0194  157.0434 C.3     1  UNL1        0.1007
     24 C         139.8815  144.1254  156.4660 C.ar    1  UNL1        0.0129
     25 C         138.5786  143.9616  155.7410 C.ar    1  UNL1        0.0176
     26 C         138.0974  145.3243  155.3391 C.ar    1  UNL1        0.0799
     27 N         139.1029  146.3303  155.8157 N.ar    1  UNL1       -0.3038
     28 C         140.2055  145.5892  156.5122 C.ar    1  UNL1        0.0772
     29 C         139.0202  147.8162  155.6287 C.ar    1  UNL1        0.0640
     30 C         139.5158  148.4410  154.3584 C.ar    1  UNL1        0.0175
     31 C         139.4332  149.9270  154.1714 C.ar    1  UNL1        0.0053
     32 C         138.8549  150.7882  155.2547 C.ar    1  UNL1        0.0715
     33 C         138.3592  150.1635  156.5252 C.ar    1  UNL1        0.0053
     34 C         138.4418  148.6775  156.7122 C.ar    1  UNL1        0.0175
     35 C         138.7722  152.2742  155.0677 C.3     1  UNL1        0.4186
     36 F         138.6895  153.7602  154.8807 F       1  UNL1       -0.1659
     37 F         138.8282  152.4644  156.5546 F       1  UNL1       -0.1659
     38 F         138.7162  152.0840  153.5808 F       1  UNL1       -0.1659
@<TRIPOS>BOND
     1     7     8    2
     2     8     9   am
     3     9     1    1
     4     1     2    1
     5     2     3    1
     6     3     4    1
     7     4    23    1
     8    23    24    1
     9    24    25   ar
    10    25    26   ar
    11    26    27   ar
    12    27    29    1
    13    29    30   ar
    14    30    31   ar
    15    31    32   ar
    16    32    35    1
    17    35    36    1
    18    35    37    1
    19    35    38    1
    20    32    33   ar
    21    33    34   ar
    22    27    28   ar
    23     4     5    1
    24     5     6    1
    25     8    10   am
    26    10    11    1
    27    11    12    1
    28    12    13    1
    29    13    14    1
    30    14    16    1
    31    16    17    1
    32    17    18   ar
    33    18    19   ar
    34    19    20   ar
    35    20    21   ar
    36    21    22   ar
    37     6     1    1
    38    14    10    1
    39    22    17   ar
    40    28    24   ar
    41    34    29   ar
    42     9    15    1
@<TRIPOS>MOLECULE
*****
 38 42 0 0 0
SMALL
GASTEIGER

@<TRIPOS>ATOM
      1 C         142.4989  143.6233  160.8243 C.3     1  UNL1        0.0758
      2 C         142.1305  143.9587  159.4095 C.3     1  UNL1        0.0370
      3 C         143.0405  143.5649  158.2841 C.3     1  UNL1        0.0741
      4 N         144.3190  142.8355  158.5734 N.3     1  UNL1       -0.2688
      5 C         144.6873  142.5001  159.9882 C.3     1  UNL1        0.0741
      6 C         143.7773  142.8939  161.1137 C.3     1  UNL1        0.0370
      7 O         139.9634  142.0945  161.3084 O.2     1  UNL1       -0.2526
      8 C         140.3211  143.2528  162.1919 C.2     1  UNL1        0.3039
      9 N         141.5888  144.0171  161.9499 N.am    1  UNL1       -0.2903
     10 N         139.4111  143.6466  163.3174 N.am    1  UNL1       -0.2655
     11 C         139.6355  144.7762  164.2785 C.3     1  UNL1        0.0949
     12 C         138.4800  144.8078  165.2346 C.3     1  UNL1        0.0233
     13 C         137.5415  143.6977  164.8642 C.3     1  UNL1        0.0220
     14 C         138.1170  142.9801  163.6794 C.3     1  UNL1        0.0813
     15 H         141.8236  144.7773  162.5297 H       1  UNL1        0.1509
     16 C         137.5057  141.8028  162.9793 C.3     1  UNL1        0.0478
     17 C         137.9875  140.4155  163.2848 C.ar    1  UNL1       -0.0014
     18 C         138.4876  140.0806  164.6587 C.ar    1  UNL1       -0.0011
     19 C         138.9694  138.6933  164.9641 C.ar    1  UNL1        0.0204
     20 C         138.9512  137.6408  163.8954 C.ar    1  UNL1        0.0989
     21 N         138.4512  137.9757  162.5214 N.ar    1  UNL1       -0.2426
     22 C         137.9694  139.3630  162.2161 C.ar    1  UNL1        0.0946
     23 C         145.2290  142.4417  157.4479 C.3     1  UNL1        0.1007
     24 C         144.8554  141.3042  156.5443 C.ar    1  UNL1        0.0129
     25 C         145.0212  141.2710  155.0539 C.ar    1  UNL1        0.0176
     26 C         144.5187  139.9465  154.5610 C.ar    1  UNL1        0.0799
     27 N         144.0424  139.1609  155.7468 N.ar    1  UNL1       -0.3038
     28 C         144.2505  140.0000  156.9726 C.ar    1  UNL1        0.0772
     29 C         143.4602  137.7789  155.7128 C.ar    1  UNL1        0.0640
     30 C         144.3341  136.6048  155.3850 C.ar    1  UNL1        0.0175
     31 C         143.7519  135.2228  155.3509 C.ar    1  UNL1        0.0053
     32 C         142.2958  135.0150  155.6447 C.ar    1  UNL1        0.0715
     33 C         141.4218  136.1892  155.9725 C.ar    1  UNL1        0.0053
     34 C         142.0040  137.5711  156.0066 C.ar    1  UNL1        0.0175
     35 C         141.7136  133.6330  155.6107 C.3     1  UNL1        0.4186
     36 F         141.1314  132.2510  155.5767 F       1  UNL1       -0.1659
     37 F         141.0133  133.9597  154.3251 F       1  UNL1       -0.1659
     38 F         142.4139  133.3063  156.8964 F       1  UNL1       -0.1659
@<TRIPOS>BOND
     1     7     8    2
     2     8     9   am
     3     9     1    1
     4     1     2    1
     5     2     3    1
     6     3     4    1
     7     4    23    1
     8    23    24    1
     9    24    25   ar
    10    25    26   ar
    11    26    27   ar
    12    27    29    1
    13    29    30   ar
    14    30    31   ar
    15    31    32   ar
    16    32    35    1
    17    35    36    1
    18    35    37    1
    19    35    38    1
    20    32    33   ar
    21    33    34   ar
    22    27    28   ar
    23     4     5    1
    24     5     6    1
    25     8    10   am
    26    10    11    1
    27    11    12    1
    28    12    13    1
    29    13    14    1
    30    14    16    1
    31    16    17    1
    32    17    18   ar
    33    18    19   ar
    34    19    20   ar
    35    20    21   ar
    36    21    22   ar
    37     6     1    1
    38    14    10    1
    39    22    17   ar
    40    28    24   ar
    41    34    29   ar
    42     9    15    1
@<TRIPOS>MOLECULE
*****
 38 42 0 0 0
SMALL
GASTEIGER

@<TRIPOS>ATOM
      1 C         138.4993  140.7574  159.4169 C.3     1  UNL1        0.0758
      2 C         137.8580  141.0420  160.7427 C.3     1  UNL1        0.0370
      3 C         138.0517  140.0936  161.8885 C.3     1  UNL1        0.0741
      4 N         138.8867  138.8606  161.7085 N.3     1  UNL1       -0.2688
      5 C         139.5280  138.5759  160.3828 C.3     1  UNL1        0.0741
      6 C         139.3343  139.5243  159.2370 C.3     1  UNL1        0.0370
      7 O         136.5709  140.0821  157.2202 O.2     1  UNL1       -0.2526
      8 C         137.3415  141.3681  157.1727 C.2     1  UNL1        0.3039
      9 N         138.3056  141.7058  158.2710 N.am    1  UNL1       -0.2903
     10 N         137.1478  142.3166  156.0268 N.am    1  UNL1       -0.2655
     11 C         137.8443  143.6325  155.8441 C.3     1  UNL1        0.0949
     12 C         137.3506  144.2448  154.5668 C.3     1  UNL1        0.0233
     13 C         136.3490  143.3073  153.9601 C.3     1  UNL1        0.0220
     14 C         136.2237  142.1156  154.8624 C.3     1  UNL1        0.0813
     15 H         138.8113  142.5499  158.2398 H       1  UNL1        0.1509
     16 C         135.3311  140.9309  154.6396 C.3     1  UNL1        0.0478
     17 C         133.8833  140.9995  155.0260 C.ar    1  UNL1       -0.0014
     18 C         132.8978  141.6819  154.1242 C.ar    1  UNL1       -0.0011
     19 C         131.4501  141.7504  154.5107 C.ar    1  UNL1        0.0204
     20 C         130.9878  141.1366  155.7989 C.ar    1  UNL1        0.0989
     21 N         131.9733  140.4543  156.7007 N.ar    1  UNL1       -0.2426
     22 C         133.4210  140.3857  156.3142 C.ar    1  UNL1        0.0946
     23 C         139.0803  137.9121  162.8545 C.3     1  UNL1        0.1007
     24 C         140.1624  138.1644  163.8622 C.ar    1  UNL1        0.0129
     25 C         141.3856  137.3220  164.0719 C.ar    1  UNL1        0.0176
     26 C         142.1904  137.9404  165.1764 C.ar    1  UNL1        0.0799
     27 N         141.4645  139.1649  165.6494 N.ar    1  UNL1       -0.3038
     28 C         140.2111  139.3034  164.8371 C.ar    1  UNL1        0.0772
     29 C         141.9133  140.0888  166.7426 C.ar    1  UNL1        0.0640
     30 C         142.1418  139.5577  168.1266 C.ar    1  UNL1        0.0175
     31 C         142.5906  140.4816  169.2198 C.ar    1  UNL1        0.0053
     32 C         142.8107  141.9365  168.9290 C.ar    1  UNL1        0.0715
     33 C         142.5822  142.4676  167.5449 C.ar    1  UNL1        0.0053
     34 C         142.1334  141.5438  166.4517 C.ar    1  UNL1        0.0175
     35 C         143.2595  142.8603  170.0222 C.3     1  UNL1        0.4186
     36 F         143.7082  143.7842  171.1154 F       1  UNL1       -0.1659
     37 F         144.6085  142.2045  170.0226 F       1  UNL1       -0.1659
     38 F         141.9104  143.5161  170.0218 F       1  UNL1       -0.1659
@<TRIPOS>BOND
     1     7     8    2
     2     8     9   am
     3     9     1    1
     4     1     2    1
     5     2     3    1
     6     3     4    1
     7     4    23    1
     8    23    24    1
     9    24    25   ar
    10    25    26   ar
    11    26    27   ar
    12    27    29    1
    13    29    30   ar
    14    30    31   ar
    15    31    32   ar
    16    32    35    1
    17    35    36    1
    18    35    37    1
    19    35    38    1
    20    32    33   ar
    21    33    34   ar
    22    27    28   ar
    23     4     5    1
    24     5     6    1
    25     8    10   am
    26    10    11    1
    27    11    12    1
    28    12    13    1
    29    13    14    1
    30    14    16    1
    31    16    17    1
    32    17    18   ar
    33    18    19   ar
    34    19    20   ar
    35    20    21   ar
    36    21    22   ar
    37     6     1    1
    38    14    10    1
    39    22    17   ar
    40    28    24   ar
    41    34    29   ar
    42     9    15    1
@<TRIPOS>MOLECULE
*****
 38 42 0 0 0
SMALL
GASTEIGER

@<TRIPOS>ATOM
      1 C         140.5388  138.0738  161.3204 C.3     1  UNL1        0.0758
      2 C         139.7712  138.4884  160.1002 C.3     1  UNL1        0.0370
      3 C         140.4710  138.6088  158.7789 C.3     1  UNL1        0.0741
      4 N         141.9384  138.3146  158.6779 N.3     1  UNL1       -0.2688
      5 C         142.7060  137.9000  159.8981 C.3     1  UNL1        0.0741
      6 C         142.0062  137.7796  161.2193 C.3     1  UNL1        0.0370
      7 O         140.8622  140.2212  163.3903 O.2     1  UNL1       -0.2526
      8 C         140.0007  139.0271  163.6766 C.2     1  UNL1        0.3039
      9 N         139.8390  137.9534  162.6417 N.am    1  UNL1       -0.2903
     10 N         139.3009  138.9067  164.9980 N.am    1  UNL1       -0.2655
     11 C         138.4117  137.7767  165.4249 C.3     1  UNL1        0.0949
     12 C         137.9287  138.0667  166.8151 C.3     1  UNL1        0.0233
     13 C         138.5194  139.3761  167.2473 C.3     1  UNL1        0.0220
     14 C         139.3675  139.8952  166.1242 C.3     1  UNL1        0.0813
     15 H         139.2735  137.1697  162.8297 H       1  UNL1        0.1509
     16 C         140.1456  141.1775  166.1269 C.3     1  UNL1        0.0478
     17 C         139.6579  142.3524  165.3320 C.ar    1  UNL1       -0.0014
     18 C         138.2665  142.3533  164.7717 C.ar    1  UNL1       -0.0011
     19 C         137.7788  143.5283  163.9768 C.ar    1  UNL1        0.0204
     20 C         138.6825  144.7023  163.7423 C.ar    1  UNL1        0.0989
     21 N         140.0739  144.7013  164.3027 N.ar    1  UNL1       -0.2426
     22 C         140.5616  143.5264  165.0975 C.ar    1  UNL1        0.0946
     23 C         142.6382  138.4349  157.3565 C.3     1  UNL1        0.1007
     24 C         142.7553  137.2394  156.4582 C.ar    1  UNL1        0.0129
     25 C         142.3712  137.1844  155.0093 C.ar    1  UNL1        0.0176
     26 C         142.6556  135.8000  154.5066 C.ar    1  UNL1        0.0799
     27 N         143.2155  134.9994  155.6450 N.ar    1  UNL1       -0.3038
     28 C         143.2770  135.8891  156.8511 C.ar    1  UNL1        0.0772
     29 C         143.6393  133.5617  155.5873 C.ar    1  UNL1        0.0640
     30 C         144.6052  133.0233  156.6007 C.ar    1  UNL1        0.0175
     31 C         145.0290  131.5856  156.5430 C.ar    1  UNL1        0.0053
     32 C         144.4869  130.6863  155.4719 C.ar    1  UNL1        0.0715
     33 C         143.5209  131.2247  154.4585 C.ar    1  UNL1        0.0053
     34 C         143.0971  132.6624  154.5162 C.ar    1  UNL1        0.0175
     35 C         144.9107  129.2486  155.4142 C.3     1  UNL1        0.4186
     36 F         145.3345  127.8108  155.3566 F       1  UNL1       -0.1659
     37 F         145.0534  129.3505  153.9245 F       1  UNL1       -0.1659
     38 F         144.7679  129.1467  156.9040 F       1  UNL1       -0.1659
@<TRIPOS>BOND
     1     7     8    2
     2     8     9   am
     3     9     1    1
     4     1     2    1
     5     2     3    1
     6     3     4    1
     7     4    23    1
     8    23    24    1
     9    24    25   ar
    10    25    26   ar
    11    26    27   ar
    12    27    29    1
    13    29    30   ar
    14    30    31   ar
    15    31    32   ar
    16    32    35    1
    17    35    36    1
    18    35    37    1
    19    35    38    1
    20    32    33   ar
    21    33    34   ar
    22    27    28   ar
    23     4     5    1
    24     5     6    1
    25     8    10   am
    26    10    11    1
    27    11    12    1
    28    12    13    1
    29    13    14    1
    30    14    16    1
    31    16    17    1
    32    17    18   ar
    33    18    19   ar
    34    19    20   ar
    35    20    21   ar
    36    21    22   ar
    37     6     1    1
    38    14    10    1
    39    22    17   ar
    40    28    24   ar
    41    34    29   ar
    42     9    15    1
@<TRIPOS>MOLECULE
*****
 38 42 0 0 0
SMALL
GASTEIGER

@<TRIPOS>ATOM
      1 C         139.7661  138.6292  161.7027 C.3     1  UNL1        0.0758
      2 C         138.8652  139.0773  160.5903 C.3     1  UNL1        0.0370
      3 C         139.3758  139.1141  159.1804 C.3     1  UNL1        0.0741
      4 N         140.7873  138.7029  158.8829 N.3     1  UNL1       -0.2688
      5 C         141.6882  138.2549  159.9953 C.3     1  UNL1        0.0741
      6 C         141.1776  138.2180  161.4053 C.3     1  UNL1        0.0370
      7 O         140.8796  140.5172  163.7511 O.2     1  UNL1       -0.2526
      8 C         139.8123  139.5363  164.1369 C.2     1  UNL1        0.3039
      9 N         139.2555  138.5924  163.1127 N.am    1  UNL1       -0.2903
     10 N         139.3017  139.4995  165.5469 N.am    1  UNL1       -0.2655
     11 C         138.2430  138.5787  166.0774 C.3     1  UNL1        0.0949
     12 C         138.0471  138.8871  167.5323 C.3     1  UNL1        0.0233
     13 C         138.9848  139.9984  167.9009 C.3     1  UNL1        0.0220
     14 C         139.7602  140.3769  166.6738 C.3     1  UNL1        0.0813
     15 H         138.5550  137.9486  163.3659 H       1  UNL1        0.1509
     16 C         140.8097  141.4451  166.5887 C.3     1  UNL1        0.0478
     17 C         141.4184  142.0001  167.8422 C.ar    1  UNL1       -0.0014
     18 C         142.8165  141.6190  168.2296 C.ar    1  UNL1       -0.0011
     19 C         143.4251  142.1741  169.4832 C.ar    1  UNL1        0.0204
     20 C         142.6357  143.1103  170.3494 C.ar    1  UNL1        0.0989
     21 N         141.2377  143.4914  169.9620 N.ar    1  UNL1       -0.2426
     22 C         140.6290  142.9364  168.7084 C.ar    1  UNL1        0.0946
     23 C         141.2979  138.7397  157.4729 C.3     1  UNL1        0.1007
     24 C         141.3362  137.4823  156.6561 C.ar    1  UNL1        0.0129
     25 C         140.4388  137.1544  155.4997 C.ar    1  UNL1        0.0176
     26 C         140.8266  135.8014  154.9811 C.ar    1  UNL1        0.0799
     27 N         141.9638  135.2931  155.8169 N.ar    1  UNL1       -0.3038
     28 C         142.2787  136.3319  156.8521 C.ar    1  UNL1        0.0772
     29 C         142.6632  133.9770  155.6473 C.ar    1  UNL1        0.0640
     30 C         143.9484  133.7116  156.3736 C.ar    1  UNL1        0.0175
     31 C         144.6478  132.3955  156.2040 C.ar    1  UNL1        0.0053
     32 C         144.0619  131.3449  155.3081 C.ar    1  UNL1        0.0715
     33 C         142.7766  131.6102  154.5818 C.ar    1  UNL1        0.0053
     34 C         142.0773  132.9263  154.7514 C.ar    1  UNL1        0.0175
     35 C         144.7613  130.0288  155.1385 C.3     1  UNL1        0.4186
     36 F         145.4607  128.7127  154.9688 F       1  UNL1       -0.1659
     37 F         144.8089  129.8621  156.6284 F       1  UNL1       -0.1659
     38 F         144.7138  130.1955  153.6485 F       1  UNL1       -0.1659
@<TRIPOS>BOND
     1     7     8    2
     2     8     9   am
     3     9     1    1
     4     1     2    1
     5     2     3    1
     6     3     4    1
     7     4    23    1
     8    23    24    1
     9    24    25   ar
    10    25    26   ar
    11    26    27   ar
    12    27    29    1
    13    29    30   ar
    14    30    31   ar
    15    31    32   ar
    16    32    35    1
    17    35    36    1
    18    35    37    1
    19    35    38    1
    20    32    33   ar
    21    33    34   ar
    22    27    28   ar
    23     4     5    1
    24     5     6    1
    25     8    10   am
    26    10    11    1
    27    11    12    1
    28    12    13    1
    29    13    14    1
    30    14    16    1
    31    16    17    1
    32    17    18   ar
    33    18    19   ar
    34    19    20   ar
    35    20    21   ar
    36    21    22   ar
    37     6     1    1
    38    14    10    1
    39    22    17   ar
    40    28    24   ar
    41    34    29   ar
    42     9    15    1
@<TRIPOS>MOLECULE
*****
 38 42 0 0 0
SMALL
GASTEIGER

@<TRIPOS>ATOM
      1 C         141.5961  138.6663  160.1896 C.3     1  UNL1        0.0758
      2 C         142.2398  137.9950  161.3664 C.3     1  UNL1        0.0370
      3 C         141.4022  137.5589  162.5318 C.3     1  UNL1        0.0741
      4 N         139.9208  137.7941  162.5203 N.3     1  UNL1       -0.2688
      5 C         139.2770  138.4653  161.3435 C.3     1  UNL1        0.0741
      6 C         140.1147  138.9014  160.1782 C.3     1  UNL1        0.0370
      7 O         141.2819  137.3176  157.5283 O.2     1  UNL1       -0.2526
      8 C         142.2766  138.4281  157.6935 C.2     1  UNL1        0.3039
      9 N         142.4337  139.1024  159.0241 N.am    1  UNL1       -0.2903
     10 N         143.1143  138.8642  156.5281 N.am    1  UNL1       -0.2655
     11 C         144.1446  139.9543  156.5419 C.3     1  UNL1        0.0949
     12 C         144.7358  140.0507  155.1666 C.3     1  UNL1        0.0233
     13 C         144.0707  139.0202  154.3029 C.3     1  UNL1        0.0220
     14 C         143.0686  138.2870  155.1444 C.3     1  UNL1        0.0813
     15 H         143.0866  139.8313  159.1326 H       1  UNL1        0.1509
     16 C         142.1773  137.1722  154.6832 C.3     1  UNL1        0.0478
     17 C         142.4294  135.7687  155.1490 C.ar    1  UNL1       -0.0014
     18 C         141.3698  134.7206  154.9800 C.ar    1  UNL1       -0.0011
     19 C         141.6220  133.3172  155.4458 C.ar    1  UNL1        0.0204
     20 C         142.9338  132.9620  156.0805 C.ar    1  UNL1        0.0989
     21 N         143.9934  134.0101  156.2495 N.ar    1  UNL1       -0.2426
     22 C         143.7412  135.4135  155.7837 C.ar    1  UNL1        0.0946
     23 C         139.0831  137.3579  163.6858 C.3     1  UNL1        0.1007
     24 C         139.1122  138.1408  164.9649 C.ar    1  UNL1        0.0129
     25 C         137.9873  138.2627  165.9497 C.ar    1  UNL1        0.0176
     26 C         138.4510  139.1364  167.0773 C.ar    1  UNL1        0.0799
     27 N         139.8626  139.5545  166.7894 N.ar    1  UNL1       -0.3038
     28 C         140.2712  138.9391  165.4839 C.ar    1  UNL1        0.0772
     29 C         140.7157  140.4335  167.6551 C.ar    1  UNL1        0.0640
     30 C         140.3241  141.8623  167.8898 C.ar    1  UNL1        0.0175
     31 C         141.1772  142.7414  168.7555 C.ar    1  UNL1        0.0053
     32 C         142.4220  142.1917  169.3865 C.ar    1  UNL1        0.0715
     33 C         142.8137  140.7629  169.1518 C.ar    1  UNL1        0.0053
     34 C         141.9606  139.8838  168.2861 C.ar    1  UNL1        0.0175
     35 C         143.2751  143.0707  170.2521 C.3     1  UNL1        0.4186
     36 F         144.1282  143.9499  171.1178 F       1  UNL1       -0.1659
     37 F         144.4505  142.1718  170.0066 F       1  UNL1       -0.1659
     38 F         142.0996  143.9697  170.4977 F       1  UNL1       -0.1659
@<TRIPOS>BOND
     1     7     8    2
     2     8     9   am
     3     9     1    1
     4     1     2    1
     5     2     3    1
     6     3     4    1
     7     4    23    1
     8    23    24    1
     9    24    25   ar
    10    25    26   ar
    11    26    27   ar
    12    27    29    1
    13    29    30   ar
    14    30    31   ar
    15    31    32   ar
    16    32    35    1
    17    35    36    1
    18    35    37    1
    19    35    38    1
    20    32    33   ar
    21    33    34   ar
    22    27    28   ar
    23     4     5    1
    24     5     6    1
    25     8    10   am
    26    10    11    1
    27    11    12    1
    28    12    13    1
    29    13    14    1
    30    14    16    1
    31    16    17    1
    32    17    18   ar
    33    18    19   ar
    34    19    20   ar
    35    20    21   ar
    36    21    22   ar
    37     6     1    1
    38    14    10    1
    39    22    17   ar
    40    28    24   ar
    41    34    29   ar
    42     9    15    1
@<TRIPOS>MOLECULE
*****
 38 42 0 0 0
SMALL
GASTEIGER

@<TRIPOS>ATOM
      1 C         139.1747  142.0242  158.3507 C.3     1  UNL1        0.0758
      2 C         140.0085  143.2462  158.1026 C.3     1  UNL1        0.0370
      3 C         140.2792  144.2089  159.2205 C.3     1  UNL1        0.0741
      4 N         139.7163  143.9497  160.5865 N.3     1  UNL1       -0.2688
      5 C         138.8825  142.7277  160.8346 C.3     1  UNL1        0.0741
      6 C         138.6117  141.7650  159.7167 C.3     1  UNL1        0.0370
      7 O         136.6151  142.2110  156.7971 O.2     1  UNL1       -0.2526
      8 C         137.6241  141.1548  156.4560 C.2     1  UNL1        0.3039
      9 N         138.9039  141.0614  157.2328 N.am    1  UNL1       -0.2903
     10 N         137.3533  140.1919  155.3381 N.am    1  UNL1       -0.2655
     11 C         138.2633  139.0891  154.8846 C.3     1  UNL1        0.0949
     12 C         137.5974  138.3784  153.7436 C.3     1  UNL1        0.0233
     13 C         136.2759  139.0422  153.4921 C.3     1  UNL1        0.0220
     14 C         136.1251  140.1630  154.4775 C.3     1  UNL1        0.0813
     15 H         139.5661  140.3682  157.0089 H       1  UNL1        0.1509
     16 C         134.9520  141.0917  154.5838 C.3     1  UNL1        0.0478
     17 C         133.7541  140.6971  155.3958 C.ar    1  UNL1       -0.0014
     18 C         133.8696  139.6113  156.4242 C.ar    1  UNL1       -0.0011
     19 C         132.6717  139.2167  157.2361 C.ar    1  UNL1        0.0204
     20 C         131.3582  139.9081  157.0198 C.ar    1  UNL1        0.0989
     21 N         131.2427  140.9940  155.9915 N.ar    1  UNL1       -0.2426
     22 C         132.4407  141.3885  155.1795 C.ar    1  UNL1        0.0946
     23 C         139.9871  144.9125  161.7044 C.3     1  UNL1        0.1007
     24 C         139.8190  144.4742  163.1290 C.ar    1  UNL1        0.0129
     25 C         138.6433  144.7740  164.0109 C.ar    1  UNL1        0.0176
     26 C         138.8947  144.1442  165.3488 C.ar    1  UNL1        0.0799
     27 N         140.2260  143.4551  165.2939 N.ar    1  UNL1       -0.3038
     28 C         140.7972  143.6590  163.9220 C.ar    1  UNL1        0.0772
     29 C         140.8725  142.6954  166.4141 C.ar    1  UNL1        0.0640
     30 C         141.9402  141.6848  166.1168 C.ar    1  UNL1        0.0175
     31 C         142.5867  140.9251  167.2371 C.ar    1  UNL1        0.0053
     32 C         142.1654  141.1761  168.6546 C.ar    1  UNL1        0.0715
     33 C         141.0976  142.1867  168.9519 C.ar    1  UNL1        0.0053
     34 C         140.4511  142.9463  167.8317 C.ar    1  UNL1        0.0175
     35 C         142.8118  140.4164  169.7748 C.3     1  UNL1        0.4186
     36 F         143.4583  139.6566  170.8951 F       1  UNL1       -0.1659
     37 F         143.7988  141.5305  169.9608 F       1  UNL1       -0.1659
     38 F         141.8249  139.3022  169.5888 F       1  UNL1       -0.1659
@<TRIPOS>BOND
     1     7     8    2
     2     8     9   am
     3     9     1    1
     4     1     2    1
     5     2     3    1
     6     3     4    1
     7     4    23    1
     8    23    24    1
     9    24    25   ar
    10    25    26   ar
    11    26    27   ar
    12    27    29    1
    13    29    30   ar
    14    30    31   ar
    15    31    32   ar
    16    32    35    1
    17    35    36    1
    18    35    37    1
    19    35    38    1
    20    32    33   ar
    21    33    34   ar
    22    27    28   ar
    23     4     5    1
    24     5     6    1
    25     8    10   am
    26    10    11    1
    27    11    12    1
    28    12    13    1
    29    13    14    1
    30    14    16    1
    31    16    17    1
    32    17    18   ar
    33    18    19   ar
    34    19    20   ar
    35    20    21   ar
    36    21    22   ar
    37     6     1    1
    38    14    10    1
    39    22    17   ar
    40    28    24   ar
    41    34    29   ar
    42     9    15    1
@<TRIPOS>MOLECULE
*****
 38 42 0 0 0
SMALL
GASTEIGER

@<TRIPOS>ATOM
      1 C         143.7724  140.1785  159.5893 C.3     1  UNL1        0.0758
      2 C         144.2830  140.8440  158.3457 C.3     1  UNL1        0.0370
      3 C         143.9705  140.2597  157.0001 C.3     1  UNL1        0.0741
      4 N         143.1473  139.0099  156.8979 N.3     1  UNL1       -0.2688
      5 C         142.6367  138.3444  158.1415 C.3     1  UNL1        0.0741
      6 C         142.9493  138.9287  159.4871 C.3     1  UNL1        0.0370
      7 O         142.4073  142.6951  160.4857 O.2     1  UNL1       -0.2526
      8 C         143.4024  142.0211  161.3832 C.2     1  UNL1        0.3039
      9 N         144.0849  140.7629  160.9350 N.am    1  UNL1       -0.2903
     10 N         143.7149  142.6054  162.7289 N.am    1  UNL1       -0.2655
     11 C         144.6822  142.0463  163.7297 C.3     1  UNL1        0.0949
     12 C         144.6802  142.9467  164.9295 C.3     1  UNL1        0.0233
     13 C         143.7115  144.0623  164.6700 C.3     1  UNL1        0.0220
     14 C         143.1150  143.8514  163.3100 C.3     1  UNL1        0.0813
     15 H         144.7380  140.3205  161.5241 H       1  UNL1        0.1509
     16 C         142.0972  144.7317  162.6474 C.3     1  UNL1        0.0478
     17 C         140.6388  144.5491  162.9471 C.ar    1  UNL1       -0.0014
     18 C         140.1360  144.7076  164.3514 C.ar    1  UNL1       -0.0011
     19 C         138.6776  144.5250  164.6510 C.ar    1  UNL1        0.0204
     20 C         137.7220  144.1839  163.5463 C.ar    1  UNL1        0.0989
     21 N         138.2248  144.0255  162.1420 N.ar    1  UNL1       -0.2426
     22 C         139.6832  144.2081  161.8424 C.ar    1  UNL1        0.0946
     23 C         142.8348  138.4255  155.5522 C.3     1  UNL1        0.1007
     24 C         142.5120  136.9663  155.4248 C.ar    1  UNL1        0.0129
     25 C         141.1430  136.3779  155.2522 C.ar    1  UNL1        0.0176
     26 C         141.2864  134.8872  155.1684 C.ar    1  UNL1        0.0799
     27 N         142.7440  134.5541  155.2891 N.ar    1  UNL1       -0.3038
     28 C         143.5014  135.8391  155.4476 C.ar    1  UNL1        0.0772
     29 C         143.3396  133.1778  155.2570 C.ar    1  UNL1        0.0640
     30 C         144.3730  132.7840  156.2703 C.ar    1  UNL1        0.0175
     31 C         144.9685  131.4076  156.2382 C.ar    1  UNL1        0.0053
     32 C         144.5307  130.4252  155.1928 C.ar    1  UNL1        0.0715
     33 C         143.4972  130.8190  154.1795 C.ar    1  UNL1        0.0053
     34 C         142.9016  132.1953  154.2116 C.ar    1  UNL1        0.0175
     35 C         145.1262  129.0489  155.1607 C.3     1  UNL1        0.4186
     36 F         145.7218  127.6725  155.1285 F       1  UNL1       -0.1659
     37 F         144.9566  128.9408  156.6472 F       1  UNL1       -0.1659
     38 F         145.2958  129.1569  153.6742 F       1  UNL1       -0.1659
@<TRIPOS>BOND
     1     7     8    2
     2     8     9   am
     3     9     1    1
     4     1     2    1
     5     2     3    1
     6     3     4    1
     7     4    23    1
     8    23    24    1
     9    24    25   ar
    10    25    26   ar
    11    26    27   ar
    12    27    29    1
    13    29    30   ar
    14    30    31   ar
    15    31    32   ar
    16    32    35    1
    17    35    36    1
    18    35    37    1
    19    35    38    1
    20    32    33   ar
    21    33    34   ar
    22    27    28   ar
    23     4     5    1
    24     5     6    1
    25     8    10   am
    26    10    11    1
    27    11    12    1
    28    12    13    1
    29    13    14    1
    30    14    16    1
    31    16    17    1
    32    17    18   ar
    33    18    19   ar
    34    19    20   ar
    35    20    21   ar
    36    21    22   ar
    37     6     1    1
    38    14    10    1
    39    22    17   ar
    40    28    24   ar
    41    34    29   ar
    42     9    15    1
