@<TRIPOS>MOLECULE
*****
 43 46 0 0 0
SMALL
GASTEIGER

@<TRIPOS>ATOM
      1 C         139.7397  143.6675  160.8278 C.3     1  UNL1        0.2524
      2 O         138.9828  143.1128  159.6576 O.3     1  UNL1       -0.3299
      3 C         139.4890  143.7866  158.4167 C.3     1  UNL1        0.1765
      4 C         140.5587  144.7576  158.8200 C.3     1  UNL1        0.1714
      5 O         141.3369  145.6463  157.8954 O.3     1  UNL1       -0.3794
      6 C         140.7137  144.6840  160.3101 C.3     1  UNL1        0.1909
      7 O         141.6741  145.4862  161.1374 O.3     1  UNL1       -0.3779
      8 H         141.0431  145.4997  156.9827 H       1  UNL1        0.2105
      9 H         141.5725  145.2483  162.0722 H       1  UNL1        0.2106
     10 C         140.8695  142.4453  165.7817 C.ar    1  UNL1        0.0517
     11 C         142.3601  142.5832  165.6852 C.ar    1  UNL1        0.0452
     12 C         142.9944  142.9746  164.3836 C.ar    1  UNL1        0.1412
     13 CL        144.4850  143.1125  164.2871 Cl      1  UNL1       -0.0612
     14 N         142.1382  143.2281  163.1783 N.ar    1  UNL1       -0.2153
     15 C         140.6477  143.0902  163.2747 C.ar    1  UNL1        0.1655
     16 C         140.0133  142.6988  164.5764 C.ar    1  UNL1        0.0696
     17 C         138.5287  142.6413  164.3698 C.ar    1  UNL1        0.1245
     18 N         138.2456  142.9972  162.9405 N.ar    1  UNL1       -0.1642
     19 N         139.5552  143.2746  162.2636 N.ar    1  UNL1       -0.2060
     20 N         140.2352  142.0538  167.0835 N.pl3   1  UNL1       -0.3304
     21 H         139.9200  142.7484  167.7060 H       1  UNL1        0.1471
     22 C         139.7280  140.2077  168.8396 C.3     1  UNL1        0.0262
     23 C         140.0811  140.6042  167.4368 C.3     1  UNL1        0.0941
     24 C         140.2802  139.5512  166.3873 C.ar    1  UNL1        0.0229
     25 C         141.6596  139.0464  166.0834 C.ar    1  UNL1       -0.0005
     26 C         141.8587  137.9934  165.0339 C.ar    1  UNL1       -0.0001
     27 C         140.6783  137.4451  164.2883 C.ar    1  UNL1        0.0023
     28 C         139.2988  137.9498  164.5922 C.ar    1  UNL1        0.0294
     29 C         139.0998  139.0029  165.6416 C.ar    1  UNL1        0.1377
     30 F         137.7203  139.5076  165.9455 F       1  UNL1       -0.2045
     31 C         139.0095  143.5336  157.0181 C.3     1  UNL1        0.1834
     32 O         139.4594  144.4246  155.8984 O.3     1  UNL1       -0.2911
     33 P         138.4733  145.3223  155.2117 P.3     1  UNL1        0.3524
     34 O         137.3749  144.3461  155.5128 O.2     1  UNL1       -0.2573
     35 O         137.4870  146.2200  154.5251 O.3     1  UNL1       -0.3231
     36 H         136.6048  145.8183  154.5606 H       1  UNL1        0.2198
     37 C         139.5715  146.2986  154.9107 C.3     1  UNL1        0.2306
     38 P         139.3520  147.7660  155.1312 P.3     1  UNL1        0.3492
     39 O         139.1324  149.2333  155.3518 O.2     1  UNL1       -0.2575
     40 O         139.4656  148.0050  153.6548 O.3     1  UNL1       -0.3232
     41 O         139.2383  147.5270  156.6077 O.3     1  UNL1       -0.3232
     42 H         139.6240  147.1618  153.2020 H       1  UNL1        0.2198
     43 H         139.3477  146.5809  156.7915 H       1  UNL1        0.2198
@<TRIPOS>BOND
     1    23    22    1
     2    23    20    1
     3    20    10    1
     4    10    11   ar
     5    11    12   ar
     6    12    13    1
     7    12    14   ar
     8    14    15   ar
     9    15    16   ar
    10    16    17   ar
    11    17    18   ar
    12    18    19   ar
    13     1    19    1
    14     1     2    1
    15     2     3    1
    16     3    31    1
    17    31    32    1
    18    32    33    1
    19    33    34    2
    20    33    35    1
    21    33    37    1
    22    37    38    1
    23    38    39    2
    24    38    40    1
    25    38    41    1
    26     3     4    1
    27     4     5    1
    28     4     6    1
    29     6     7    1
    30    23    24    1
    31    24    25   ar
    32    25    26   ar
    33    26    27   ar
    34    27    28   ar
    35    28    29   ar
    36    29    30    1
    37    16    10   ar
    38     6     1    1
    39    29    24   ar
    40    19    15   ar
    41    20    21    1
    42    35    36    1
    43    40    42    1
    44    41    43    1
    45     5     8    1
    46     7     9    1
@<TRIPOS>MOLECULE
*****
 43 46 0 0 0
SMALL
GASTEIGER

@<TRIPOS>ATOM
      1 C         142.6629  140.6631  168.1356 C.3     1  UNL1        0.2524
      2 O         142.9318  139.2204  168.4458 O.3     1  UNL1       -0.3299
      3 C         142.8018  139.0330  169.9284 C.3     1  UNL1        0.1765
      4 C         142.4526  140.3599  170.5345 C.3     1  UNL1        0.1714
      5 O         142.2285  140.6316  171.9926 O.3     1  UNL1       -0.3794
      6 C         142.3668  141.3673  169.4265 C.3     1  UNL1        0.1909
      7 O         142.0418  142.8235  169.5820 O.3     1  UNL1       -0.3779
      8 H         142.3441  139.8106  172.4960 H       1  UNL1        0.2105
      9 H         142.0511  143.2516  168.7117 H       1  UNL1        0.2106
     10 C         142.0174  141.2785  162.9863 C.ar    1  UNL1        0.0517
     11 C         141.4086  139.9375  162.7009 C.ar    1  UNL1        0.0452
     12 C         141.1957  138.9578  163.8164 C.ar    1  UNL1        0.1412
     13 CL        140.5869  137.6168  163.5310 Cl      1  UNL1       -0.0612
     14 N         141.5916  139.3187  165.2175 N.ar    1  UNL1       -0.2153
     15 C         142.2003  140.6596  165.5029 C.ar    1  UNL1        0.1655
     16 C         142.4132  141.6395  164.3874 C.ar    1  UNL1        0.0696
     17 C         143.0306  142.8768  164.9686 C.ar    1  UNL1        0.1245
     18 N         143.1993  142.6616  166.4435 N.ar    1  UNL1       -0.1642
     19 N         142.6862  141.2913  166.7737 N.ar    1  UNL1       -0.2060
     20 N         142.2303  142.2583  161.8706 N.pl3   1  UNL1       -0.3304
     21 H         143.0915  142.2823  161.3942 H       1  UNL1        0.1471
     22 C         141.1463  143.8537  160.1302 C.3     1  UNL1        0.0262
     23 C         141.1310  143.2015  161.4809 C.3     1  UNL1        0.0941
     24 C         140.0166  143.4925  162.4417 C.ar    1  UNL1        0.0229
     25 C         140.1923  144.5426  163.4983 C.ar    1  UNL1       -0.0005
     26 C         139.0778  144.8336  164.4592 C.ar    1  UNL1       -0.0001
     27 C         137.7876  144.0746  164.3634 C.ar    1  UNL1        0.0023
     28 C         137.6119  143.0245  163.3068 C.ar    1  UNL1        0.0294
     29 C         138.7264  142.7335  162.3460 C.ar    1  UNL1        0.1377
     30 F         138.5506  141.6834  161.2893 F       1  UNL1       -0.2045
     31 C         142.9882  137.7448  170.6739 C.3     1  UNL1        0.1834
     32 O         144.3305  137.3967  171.2458 O.3     1  UNL1       -0.2911
     33 P         144.8717  136.0058  171.0965 P.3     1  UNL1        0.3524
     34 O         144.9458  136.1943  169.6102 O.2     1  UNL1       -0.2573
     35 O         145.4128  134.6148  170.9470 O.3     1  UNL1       -0.3231
     36 H         145.5747  134.4299  170.0087 H       1  UNL1        0.2198
     37 C         144.7975  135.8173  172.5827 C.3     1  UNL1        0.2306
     38 P         146.0525  135.8324  173.4042 P.3     1  UNL1        0.3492
     39 O         147.3075  135.8476  174.2257 O.2     1  UNL1       -0.2575
     40 O         145.9608  134.3446  173.5718 O.3     1  UNL1       -0.3232
     41 O         146.1442  137.3202  173.2367 O.3     1  UNL1       -0.3232
     42 H         145.1759  134.0147  173.1070 H       1  UNL1        0.2198
     43 H         145.3989  137.6317  172.6997 H       1  UNL1        0.2198
@<TRIPOS>BOND
     1    23    22    1
     2    23    20    1
     3    20    10    1
     4    10    11   ar
     5    11    12   ar
     6    12    13    1
     7    12    14   ar
     8    14    15   ar
     9    15    16   ar
    10    16    17   ar
    11    17    18   ar
    12    18    19   ar
    13     1    19    1
    14     1     2    1
    15     2     3    1
    16     3    31    1
    17    31    32    1
    18    32    33    1
    19    33    34    2
    20    33    35    1
    21    33    37    1
    22    37    38    1
    23    38    39    2
    24    38    40    1
    25    38    41    1
    26     3     4    1
    27     4     5    1
    28     4     6    1
    29     6     7    1
    30    23    24    1
    31    24    25   ar
    32    25    26   ar
    33    26    27   ar
    34    27    28   ar
    35    28    29   ar
    36    29    30    1
    37    16    10   ar
    38     6     1    1
    39    29    24   ar
    40    19    15   ar
    41    20    21    1
    42    35    36    1
    43    40    42    1
    44    41    43    1
    45     5     8    1
    46     7     9    1
@<TRIPOS>MOLECULE
*****
 43 46 0 0 0
SMALL
GASTEIGER

@<TRIPOS>ATOM
      1 C         138.0717  140.8946  158.8033 C.3     1  UNL1        0.2524
      2 O         137.6314  140.1340  157.5877 O.3     1  UNL1       -0.3299
      3 C         137.7581  141.0429  156.4012 C.3     1  UNL1        0.1765
      4 C         138.2767  142.3652  156.8834 C.3     1  UNL1        0.1714
      5 O         138.5529  143.5680  156.0308 O.3     1  UNL1       -0.3794
      6 C         138.4705  142.2735  158.3680 C.3     1  UNL1        0.1909
      7 O         138.9745  143.3686  159.2607 O.3     1  UNL1       -0.3779
      8 H         138.3440  143.3636  155.1059 H       1  UNL1        0.2105
      9 H         139.0060  143.0504  160.1765 H       1  UNL1        0.2106
     10 C         137.9568  140.7942  164.0271 C.ar    1  UNL1        0.0517
     11 C         137.7563  142.2641  164.2495 C.ar    1  UNL1        0.0452
     12 C         137.6618  143.1941  163.0765 C.ar    1  UNL1        0.1412
     13 CL        137.4613  144.6640  163.2990 Cl      1  UNL1       -0.0612
     14 N         137.7676  142.6544  161.6810 N.ar    1  UNL1       -0.2153
     15 C         137.9680  141.1846  161.4585 C.ar    1  UNL1        0.1655
     16 C         138.0626  140.2545  162.6315 C.ar    1  UNL1        0.0696
     17 C         138.2601  138.8637  162.1056 C.ar    1  UNL1        0.1245
     18 N         138.2875  138.9342  160.6076 N.ar    1  UNL1       -0.1642
     19 N         138.1070  140.3686  160.2076 N.ar    1  UNL1       -0.2060
     20 N         138.0514  139.8642  165.2002 N.pl3   1  UNL1       -0.3304
     21 H         137.2566  139.3656  165.4984 H       1  UNL1        0.1471
     22 C         140.3748  138.7197  165.4039 C.3     1  UNL1        0.0262
     23 C         139.3569  139.6938  165.9188 C.3     1  UNL1        0.0941
     24 C         139.6446  140.4973  167.1523 C.ar    1  UNL1        0.0229
     25 C         139.2208  139.9850  168.4969 C.ar    1  UNL1       -0.0005
     26 C         139.5084  140.7886  169.7304 C.ar    1  UNL1       -0.0001
     27 C         140.2199  142.1044  169.6193 C.ar    1  UNL1        0.0023
     28 C         140.6436  142.6167  168.2747 C.ar    1  UNL1        0.0294
     29 C         140.3560  141.8132  167.0412 C.ar    1  UNL1        0.1377
     30 F         140.7797  142.3255  165.6966 F       1  UNL1       -0.2045
     31 C         137.4248  140.6912  154.9816 C.3     1  UNL1        0.1834
     32 O         136.1137  140.0378  154.6589 O.3     1  UNL1       -0.2911
     33 P         134.8309  140.7865  154.8679 P.3     1  UNL1        0.3524
     34 O         135.4650  142.0277  154.3133 O.2     1  UNL1       -0.2573
     35 O         133.5481  141.5354  155.0770 O.3     1  UNL1       -0.3231
     36 H         133.6583  142.4535  154.7839 H       1  UNL1        0.2198
     37 C         134.1968  139.5455  155.4225 C.3     1  UNL1        0.2306
     38 P         133.3944  139.6144  156.6880 P.3     1  UNL1        0.3492
     39 O         132.5921  139.6834  157.9535 O.2     1  UNL1       -0.2575
     40 O         134.6423  139.9191  157.4626 O.3     1  UNL1       -0.3232
     41 O         132.1466  139.3097  155.9135 O.3     1  UNL1       -0.3232
     42 H         135.4005  139.9428  156.8579 H       1  UNL1        0.2198
     43 H         132.3667  139.2020  154.9750 H       1  UNL1        0.2198
@<TRIPOS>BOND
     1    23    22    1
     2    23    20    1
     3    20    10    1
     4    10    11   ar
     5    11    12   ar
     6    12    13    1
     7    12    14   ar
     8    14    15   ar
     9    15    16   ar
    10    16    17   ar
    11    17    18   ar
    12    18    19   ar
    13     1    19    1
    14     1     2    1
    15     2     3    1
    16     3    31    1
    17    31    32    1
    18    32    33    1
    19    33    34    2
    20    33    35    1
    21    33    37    1
    22    37    38    1
    23    38    39    2
    24    38    40    1
    25    38    41    1
    26     3     4    1
    27     4     5    1
    28     4     6    1
    29     6     7    1
    30    23    24    1
    31    24    25   ar
    32    25    26   ar
    33    26    27   ar
    34    27    28   ar
    35    28    29   ar
    36    29    30    1
    37    16    10   ar
    38     6     1    1
    39    29    24   ar
    40    19    15   ar
    41    20    21    1
    42    35    36    1
    43    40    42    1
    44    41    43    1
    45     5     8    1
    46     7     9    1
@<TRIPOS>MOLECULE
*****
 43 46 0 0 0
SMALL
GASTEIGER

@<TRIPOS>ATOM
      1 C         138.2288  141.4524  157.9823 C.3     1  UNL1        0.2524
      2 O         138.1412  142.8609  157.4738 O.3     1  UNL1       -0.3299
      3 C         138.4303  142.8411  156.0020 C.3     1  UNL1        0.1765
      4 C         138.6965  141.4205  155.6009 C.3     1  UNL1        0.1714
      5 O         139.0289  140.9421  154.2187 O.3     1  UNL1       -0.3794
      6 C         138.5720  140.5622  156.8248 C.3     1  UNL1        0.1909
      7 O         138.7580  139.0749  156.8813 O.3     1  UNL1       -0.3779
      8 H         139.0472  141.6977  153.6107 H       1  UNL1        0.2105
      9 H         138.6218  138.7663  157.7908 H       1  UNL1        0.2106
     10 C         137.9995  141.5922  163.2014 C.ar    1  UNL1        0.0517
     11 C         138.4499  143.0116  163.3820 C.ar    1  UNL1        0.0452
     12 C         138.7847  143.8503  162.1844 C.ar    1  UNL1        0.1412
     13 CL        139.2352  145.2697  162.3649 Cl      1  UNL1       -0.0612
     14 N         138.6691  143.2698  160.8061 N.ar    1  UNL1       -0.2153
     15 C         138.2187  141.8505  160.6255 C.ar    1  UNL1        0.1655
     16 C         137.8839  141.0117  161.8231 C.ar    1  UNL1        0.0696
     17 C         137.4696  139.6544  161.3373 C.ar    1  UNL1        0.1245
     18 N         137.5484  139.6543  159.8394 N.ar    1  UNL1       -0.1642
     19 N         138.0113  141.0116  159.3994 N.ar    1  UNL1       -0.2060
     20 N         137.6646  140.7535  164.3991 N.pl3   1  UNL1       -0.3304
     21 H         136.7387  140.7175  164.7316 H       1  UNL1        0.1471
     22 C         139.2565  138.7017  164.4766 C.3     1  UNL1        0.0262
     23 C         138.7406  139.9695  165.0902 C.3     1  UNL1        0.0941
     24 C         139.3007  140.4533  166.3949 C.ar    1  UNL1        0.0229
     25 C         140.2508  141.6139  166.4189 C.ar    1  UNL1       -0.0005
     26 C         140.8109  142.0977  167.7236 C.ar    1  UNL1       -0.0001
     27 C         140.4210  141.4210  169.0042 C.ar    1  UNL1        0.0023
     28 C         139.4709  140.2604  168.9802 C.ar    1  UNL1        0.0294
     29 C         138.9108  139.7766  167.6755 C.ar    1  UNL1        0.1377
     30 F         137.9607  138.6161  167.6514 F       1  UNL1       -0.2045
     31 C         138.4497  144.0328  155.0913 C.3     1  UNL1        0.1834
     32 O         139.6540  144.9260  155.0504 O.3     1  UNL1       -0.2911
     33 P         139.7693  146.0741  156.0087 P.3     1  UNL1        0.3524
     34 O         138.4681  146.6251  155.5051 O.2     1  UNL1       -0.2573
     35 O         139.8844  147.2224  156.9671 O.3     1  UNL1       -0.3231
     36 H         139.1160  147.8057  156.8666 H       1  UNL1        0.2198
     37 C         141.0704  145.5233  156.5124 C.3     1  UNL1        0.2306
     38 P         141.3723  145.5376  157.9816 P.3     1  UNL1        0.3492
     39 O         141.6743  145.5518  159.4508 O.2     1  UNL1       -0.2575
     40 O         142.5839  146.3837  157.7244 O.3     1  UNL1       -0.3232
     41 O         140.1608  144.6915  158.2388 O.3     1  UNL1       -0.3232
     42 H         142.6610  146.5573  156.7732 H       1  UNL1        0.2198
     43 H         139.7155  144.5004  157.3985 H       1  UNL1        0.2198
@<TRIPOS>BOND
     1    23    22    1
     2    23    20    1
     3    20    10    1
     4    10    11   ar
     5    11    12   ar
     6    12    13    1
     7    12    14   ar
     8    14    15   ar
     9    15    16   ar
    10    16    17   ar
    11    17    18   ar
    12    18    19   ar
    13     1    19    1
    14     1     2    1
    15     2     3    1
    16     3    31    1
    17    31    32    1
    18    32    33    1
    19    33    34    2
    20    33    35    1
    21    33    37    1
    22    37    38    1
    23    38    39    2
    24    38    40    1
    25    38    41    1
    26     3     4    1
    27     4     5    1
    28     4     6    1
    29     6     7    1
    30    23    24    1
    31    24    25   ar
    32    25    26   ar
    33    26    27   ar
    34    27    28   ar
    35    28    29   ar
    36    29    30    1
    37    16    10   ar
    38     6     1    1
    39    29    24   ar
    40    19    15   ar
    41    20    21    1
    42    35    36    1
    43    40    42    1
    44    41    43    1
    45     5     8    1
    46     7     9    1
@<TRIPOS>MOLECULE
*****
 43 46 0 0 0
SMALL
GASTEIGER

@<TRIPOS>ATOM
      1 C         142.0738  143.7382  160.6235 C.3     1  UNL1        0.2524
      2 O         140.9113  144.6394  160.3297 O.3     1  UNL1       -0.3299
      3 C         140.9896  145.0414  158.8867 C.3     1  UNL1        0.1765
      4 C         142.2006  144.3888  158.2887 C.3     1  UNL1        0.1714
      5 O         142.6606  144.5187  156.8669 O.3     1  UNL1       -0.3794
      6 C         142.8706  143.5833  159.3621 C.3     1  UNL1        0.1909
      7 O         144.1185  142.7664  159.2022 O.3     1  UNL1       -0.3779
      8 H         142.0510  145.0962  156.3813 H       1  UNL1        0.2105
      9 H         144.3397  142.3452  160.0475 H       1  UNL1        0.2106
     10 C         141.6890  142.4314  165.6688 C.ar    1  UNL1        0.0517
     11 C         140.4478  143.2133  165.9823 C.ar    1  UNL1        0.0452
     12 C         139.7802  144.0223  164.9101 C.ar    1  UNL1        0.1412
     13 CL        138.5390  144.8042  165.2236 Cl      1  UNL1       -0.0612
     14 N         140.3537  144.0496  163.5244 N.ar    1  UNL1       -0.2153
     15 C         141.5948  143.2677  163.2108 C.ar    1  UNL1        0.1655
     16 C         142.2625  142.4586  164.2831 C.ar    1  UNL1        0.0696
     17 C         143.4652  141.7942  163.6814 C.ar    1  UNL1        0.1245
     18 N         143.5409  142.1927  162.2373 N.ar    1  UNL1       -0.1642
     19 N         142.3850  143.1034  161.9464 N.ar    1  UNL1       -0.2060
     20 N         142.3565  141.6223  166.7411 N.pl3   1  UNL1       -0.3304
     21 H         143.2678  141.8511  167.0351 H       1  UNL1        0.1471
     22 C         141.8463  140.1438  168.8156 C.3     1  UNL1        0.0262
     23 C         141.6357  140.4645  167.3655 C.3     1  UNL1        0.0941
     24 C         140.7042  139.6275  166.5399 C.ar    1  UNL1        0.0229
     25 C         139.2244  139.6983  166.7750 C.ar    1  UNL1       -0.0005
     26 C         138.2929  138.8612  165.9493 C.ar    1  UNL1       -0.0001
     27 C         138.8412  137.9534  164.8886 C.ar    1  UNL1        0.0023
     28 C         140.3210  137.8826  164.6535 C.ar    1  UNL1        0.0294
     29 C         141.2525  138.7196  165.4791 C.ar    1  UNL1        0.1377
     30 F         142.7323  138.6489  165.2440 F       1  UNL1       -0.2045
     31 C         140.0261  145.9387  158.1679 C.3     1  UNL1        0.1834
     32 O         140.3075  146.3649  156.7575 O.3     1  UNL1       -0.2911
     33 P         139.1749  146.5704  155.7959 P.3     1  UNL1        0.3524
     34 O         139.4265  145.2127  155.2096 O.2     1  UNL1       -0.2573
     35 O         138.0423  146.7757  154.8341 O.3     1  UNL1       -0.3231
     36 H         137.9515  145.9923  154.2694 H       1  UNL1        0.2198
     37 C         138.9233  147.9280  156.3821 C.3     1  UNL1        0.2306
     38 P         138.9739  149.1444  155.5058 P.3     1  UNL1        0.3492
     39 O         139.0244  150.3608  154.6296 O.2     1  UNL1       -0.2575
     40 O         137.6954  149.6372  156.1162 O.3     1  UNL1       -0.3232
     41 O         140.2523  148.6515  154.8954 O.3     1  UNL1       -0.3232
     42 H         137.3890  149.0018  156.7821 H       1  UNL1        0.2198
     43 H         140.4971  147.8037  155.2981 H       1  UNL1        0.2198
@<TRIPOS>BOND
     1    23    22    1
     2    23    20    1
     3    20    10    1
     4    10    11   ar
     5    11    12   ar
     6    12    13    1
     7    12    14   ar
     8    14    15   ar
     9    15    16   ar
    10    16    17   ar
    11    17    18   ar
    12    18    19   ar
    13     1    19    1
    14     1     2    1
    15     2     3    1
    16     3    31    1
    17    31    32    1
    18    32    33    1
    19    33    34    2
    20    33    35    1
    21    33    37    1
    22    37    38    1
    23    38    39    2
    24    38    40    1
    25    38    41    1
    26     3     4    1
    27     4     5    1
    28     4     6    1
    29     6     7    1
    30    23    24    1
    31    24    25   ar
    32    25    26   ar
    33    26    27   ar
    34    27    28   ar
    35    28    29   ar
    36    29    30    1
    37    16    10   ar
    38     6     1    1
    39    29    24   ar
    40    19    15   ar
    41    20    21    1
    42    35    36    1
    43    40    42    1
    44    41    43    1
    45     5     8    1
    46     7     9    1
@<TRIPOS>MOLECULE
*****
 43 46 0 0 0
SMALL
GASTEIGER

@<TRIPOS>ATOM
      1 C         140.2904  139.8110  165.9541 C.3     1  UNL1        0.2524
      2 O         140.4716  140.4681  167.2903 O.3     1  UNL1       -0.3299
      3 C         139.3666  140.0005  168.1905 C.3     1  UNL1        0.1765
      4 C         138.5024  139.0545  167.4107 C.3     1  UNL1        0.1714
      5 O         137.2817  138.3493  167.9231 O.3     1  UNL1       -0.3794
      6 C         139.0733  138.9373  166.0286 C.3     1  UNL1        0.1909
      7 O         138.5237  138.0945  164.9161 O.3     1  UNL1       -0.3779
      8 H         137.1291  138.5980  168.8482 H       1  UNL1        0.2105
      9 H         139.0789  138.1979  164.1275 H       1  UNL1        0.2106
     10 C         141.7653  140.4674  160.9837 C.ar    1  UNL1        0.0517
     11 C         140.3968  140.4725  160.3696 C.ar    1  UNL1        0.0452
     12 C         139.1844  140.3111  161.2378 C.ar    1  UNL1        0.1412
     13 CL        137.8159  140.3161  160.6237 Cl      1  UNL1       -0.0612
     14 N         139.3405  140.1445  162.7204 N.ar    1  UNL1       -0.2153
     15 C         140.7089  140.1394  163.3346 C.ar    1  UNL1        0.1655
     16 C         141.9214  140.3009  162.4663 C.ar    1  UNL1        0.0696
     17 C         143.1331  140.2565  163.3492 C.ar    1  UNL1        0.1245
     18 N         142.6696  140.0676  164.7632 N.ar    1  UNL1       -0.1642
     19 N         141.1714  139.9952  164.7542 N.ar    1  UNL1       -0.2060
     20 N         142.9777  140.6289  160.1153 N.pl3   1  UNL1       -0.3304
     21 H         143.3371  139.8558  159.6231 H       1  UNL1        0.1471
     22 C         144.5364  142.2613  158.8286 C.3     1  UNL1        0.0262
     23 C         143.6424  141.9684  159.9970 C.3     1  UNL1        0.0941
     24 C         143.4133  143.0148  161.0469 C.ar    1  UNL1        0.0229
     25 C         142.1920  143.8837  160.9859 C.ar    1  UNL1       -0.0005
     26 C         141.9629  144.9301  162.0358 C.ar    1  UNL1       -0.0001
     27 C         142.9550  145.1078  163.1467 C.ar    1  UNL1        0.0023
     28 C         144.1762  144.2390  163.2077 C.ar    1  UNL1        0.0294
     29 C         144.4054  143.1925  162.1578 C.ar    1  UNL1        0.1377
     30 F         145.6266  142.3236  162.2188 F       1  UNL1       -0.2045
     31 C         139.1618  140.4076  169.6196 C.3     1  UNL1        0.1834
     32 O         139.7840  141.6710  170.1361 O.3     1  UNL1       -0.2911
     33 P         140.9648  141.6029  171.0585 P.3     1  UNL1        0.3524
     34 O         140.3275  140.4589  171.7900 O.2     1  UNL1       -0.2573
     35 O         142.1457  141.5348  171.9810 O.3     1  UNL1       -0.3231
     36 H         142.0116  140.8226  172.6258 H       1  UNL1        0.2198
     37 C         141.6022  142.7469  170.3271 C.3     1  UNL1        0.2306
     38 P         143.0650  142.7048  169.9978 P.3     1  UNL1        0.3492
     39 O         144.5278  142.6627  169.6685 O.2     1  UNL1       -0.2575
     40 O         143.3240  143.7802  171.0109 O.3     1  UNL1       -0.3232
     41 O         142.8060  141.6294  168.9847 O.3     1  UNL1       -0.3232
     42 H         142.4880  144.0377  171.4301 H       1  UNL1        0.2198
     43 H         141.8583  141.4233  168.9671 H       1  UNL1        0.2198
@<TRIPOS>BOND
     1    23    22    1
     2    23    20    1
     3    20    10    1
     4    10    11   ar
     5    11    12   ar
     6    12    13    1
     7    12    14   ar
     8    14    15   ar
     9    15    16   ar
    10    16    17   ar
    11    17    18   ar
    12    18    19   ar
    13     1    19    1
    14     1     2    1
    15     2     3    1
    16     3    31    1
    17    31    32    1
    18    32    33    1
    19    33    34    2
    20    33    35    1
    21    33    37    1
    22    37    38    1
    23    38    39    2
    24    38    40    1
    25    38    41    1
    26     3     4    1
    27     4     5    1
    28     4     6    1
    29     6     7    1
    30    23    24    1
    31    24    25   ar
    32    25    26   ar
    33    26    27   ar
    34    27    28   ar
    35    28    29   ar
    36    29    30    1
    37    16    10   ar
    38     6     1    1
    39    29    24   ar
    40    19    15   ar
    41    20    21    1
    42    35    36    1
    43    40    42    1
    44    41    43    1
    45     5     8    1
    46     7     9    1
@<TRIPOS>MOLECULE
*****
 43 46 0 0 0
SMALL
GASTEIGER

@<TRIPOS>ATOM
      1 C         138.3956  142.0393  159.8875 C.3     1  UNL1        0.2524
      2 O         138.6208  143.2322  159.0065 O.3     1  UNL1       -0.3299
      3 C         138.4743  142.7898  157.5808 C.3     1  UNL1        0.1765
      4 C         138.1586  141.3234  157.5805 C.3     1  UNL1        0.1714
      5 O         137.9315  140.4706  156.3676 O.3     1  UNL1       -0.3794
      6 C         138.1100  140.8596  159.0062 C.3     1  UNL1        0.1909
      7 O         137.8256  139.4614  159.4692 O.3     1  UNL1       -0.3779
      8 H         138.0198  141.0141  155.5691 H       1  UNL1        0.2105
      9 H         137.8536  139.4298  160.4383 H       1  UNL1        0.2106
     10 C         140.2541  142.4677  164.7531 C.ar    1  UNL1        0.0517
     11 C         141.6573  142.8595  164.3958 C.ar    1  UNL1        0.0452
     12 C         142.0551  142.9933  162.9558 C.ar    1  UNL1        0.1412
     13 CL        143.4583  143.3852  162.5985 Cl      1  UNL1       -0.0612
     14 N         141.0497  142.7353  161.8729 N.ar    1  UNL1       -0.2153
     15 C         139.6466  142.3435  162.2301 C.ar    1  UNL1        0.1655
     16 C         139.2487  142.2096  163.6701 C.ar    1  UNL1        0.0696
     17 C         137.8033  141.8114  163.7167 C.ar    1  UNL1        0.1245
     18 N         137.3078  141.6992  162.3054 N.ar    1  UNL1       -0.1642
     19 N         138.4470  142.0280  161.3866 N.ar    1  UNL1       -0.2060
     20 N         139.8563  142.3339  166.1932 N.pl3   1  UNL1       -0.3304
     21 H         139.4418  143.0939  166.6620 H       1  UNL1        0.1471
     22 C         140.0882  141.0136  168.4187 C.3     1  UNL1        0.0262
     23 C         140.0902  141.0422  166.9190 C.3     1  UNL1        0.0941
     24 C         140.3259  139.7790  166.1451 C.ar    1  UNL1        0.0229
     25 C         141.7261  139.3409  165.8329 C.ar    1  UNL1       -0.0005
     26 C         141.9619  138.0778  165.0590 C.ar    1  UNL1       -0.0001
     27 C         140.7974  137.2528  164.5973 C.ar    1  UNL1        0.0023
     28 C         139.3972  137.6908  164.9095 C.ar    1  UNL1        0.0294
     29 C         139.1614  138.9540  165.6833 C.ar    1  UNL1        0.1377
     30 F         137.7612  139.3920  165.9955 F       1  UNL1       -0.2045
     31 C         138.6183  143.6609  156.3681 C.3     1  UNL1        0.1834
     32 O         139.8854  144.4318  156.1446 O.3     1  UNL1       -0.2911
     33 P         139.8731  145.9303  156.2097 P.3     1  UNL1        0.3524
     34 O         138.4669  145.9414  155.6877 O.2     1  UNL1       -0.2573
     35 O         139.8607  147.4289  156.2748 O.3     1  UNL1       -0.3231
     36 H         139.0007  147.7586  155.9706 H       1  UNL1        0.2198
     37 C         141.2793  145.9193  156.7318 C.3     1  UNL1        0.2306
     38 P         141.5515  145.4955  158.1447 P.3     1  UNL1        0.3492
     39 O         141.8237  145.0718  159.5576 O.2     1  UNL1       -0.2575
     40 O         140.1523  145.8765  158.5285 O.3     1  UNL1       -0.3232
     41 O         142.9506  145.1146  157.7609 O.3     1  UNL1       -0.3232
     42 H         139.6848  146.2169  157.7498 H       1  UNL1        0.2198
     43 H         143.0863  145.2909  156.8167 H       1  UNL1        0.2198
@<TRIPOS>BOND
     1    23    22    1
     2    23    20    1
     3    20    10    1
     4    10    11   ar
     5    11    12   ar
     6    12    13    1
     7    12    14   ar
     8    14    15   ar
     9    15    16   ar
    10    16    17   ar
    11    17    18   ar
    12    18    19   ar
    13     1    19    1
    14     1     2    1
    15     2     3    1
    16     3    31    1
    17    31    32    1
    18    32    33    1
    19    33    34    2
    20    33    35    1
    21    33    37    1
    22    37    38    1
    23    38    39    2
    24    38    40    1
    25    38    41    1
    26     3     4    1
    27     4     5    1
    28     4     6    1
    29     6     7    1
    30    23    24    1
    31    24    25   ar
    32    25    26   ar
    33    26    27   ar
    34    27    28   ar
    35    28    29   ar
    36    29    30    1
    37    16    10   ar
    38     6     1    1
    39    29    24   ar
    40    19    15   ar
    41    20    21    1
    42    35    36    1
    43    40    42    1
    44    41    43    1
    45     5     8    1
    46     7     9    1
@<TRIPOS>MOLECULE
*****
 43 46 0 0 0
SMALL
GASTEIGER

@<TRIPOS>ATOM
      1 C         140.0120  144.1487  160.1281 C.3     1  UNL1        0.2524
      2 O         139.3085  144.1664  158.8034 O.3     1  UNL1       -0.3299
      3 C         140.1908  144.8761  157.8196 C.3     1  UNL1        0.1765
      4 C         141.4395  145.2970  158.5361 C.3     1  UNL1        0.1714
      5 O         142.5957  146.0375  157.9320 O.3     1  UNL1       -0.3794
      6 C         141.3290  144.8474  159.9629 C.3     1  UNL1        0.1909
      7 O         142.3553  145.0594  161.0361 O.3     1  UNL1       -0.3779
      8 H         142.4160  146.2079  156.9942 H       1  UNL1        0.2105
      9 H         142.0387  144.6724  161.8673 H       1  UNL1        0.2106
     10 C         138.3353  140.5627  163.5399 C.ar    1  UNL1        0.0517
     11 C         138.4739  139.3626  162.6507 C.ar    1  UNL1        0.0452
     12 C         138.9797  139.5230  161.2478 C.ar    1  UNL1        0.1412
     13 CL        139.1184  138.3229  160.3586 Cl      1  UNL1       -0.0612
     14 N         139.3469  140.8835  160.7339 N.ar    1  UNL1       -0.2153
     15 C         139.2083  142.0836  161.6230 C.ar    1  UNL1        0.1655
     16 C         138.7025  141.9232  163.0260 C.ar    1  UNL1        0.0696
     17 C         138.6717  143.2796  163.6656 C.ar    1  UNL1        0.1245
     18 N         139.1585  144.2784  162.6579 N.ar    1  UNL1       -0.1642
     19 N         139.4902  143.5392  161.3955 N.ar    1  UNL1       -0.2060
     20 N         137.8295  140.4022  164.9429 N.pl3   1  UNL1       -0.3304
     21 H         137.0165  140.8772  165.2304 H       1  UNL1        0.1471
     22 C         137.7954  138.6321  166.8444 C.3     1  UNL1        0.0262
     23 C         138.5623  139.5180  165.9079 C.3     1  UNL1        0.0941
     24 C         140.0621  139.5197  165.9363 C.ar    1  UNL1        0.0229
     25 C         140.7995  140.6794  166.5374 C.ar    1  UNL1       -0.0005
     26 C         142.2992  140.6811  166.5659 C.ar    1  UNL1       -0.0001
     27 C         143.0615  139.5231  165.9933 C.ar    1  UNL1        0.0023
     28 C         142.3241  138.3634  165.3922 C.ar    1  UNL1        0.0294
     29 C         140.8243  138.3617  165.3637 C.ar    1  UNL1        0.1377
     30 F         140.0869  137.2020  164.7626 F       1  UNL1       -0.2045
     31 C         139.8789  145.1218  156.3730 C.3     1  UNL1        0.1834
     32 O         138.5500  144.7107  155.8119 O.3     1  UNL1       -0.2911
     33 P         138.3989  143.3773  155.1417 P.3     1  UNL1        0.3524
     34 O         139.5926  143.6738  154.2829 O.2     1  UNL1       -0.2573
     35 O         138.2479  142.0440  154.4713 O.3     1  UNL1       -0.3231
     36 H         138.9431  141.9374  153.8033 H       1  UNL1        0.2198
     37 C         137.2052  143.0808  156.0003 C.3     1  UNL1        0.2306
     38 P         137.0928  141.7573  156.6972 P.3     1  UNL1        0.3492
     39 O         136.9804  140.4338  157.3940 O.2     1  UNL1       -0.2575
     40 O         135.7105  141.5822  156.1416 O.3     1  UNL1       -0.3232
     41 O         138.4751  141.9324  157.2527 O.3     1  UNL1       -0.3232
     42 H         135.4811  142.3514  155.5970 H       1  UNL1        0.2198
     43 H         138.8416  142.7771  156.9476 H       1  UNL1        0.2198
@<TRIPOS>BOND
     1    23    22    1
     2    23    20    1
     3    20    10    1
     4    10    11   ar
     5    11    12   ar
     6    12    13    1
     7    12    14   ar
     8    14    15   ar
     9    15    16   ar
    10    16    17   ar
    11    17    18   ar
    12    18    19   ar
    13     1    19    1
    14     1     2    1
    15     2     3    1
    16     3    31    1
    17    31    32    1
    18    32    33    1
    19    33    34    2
    20    33    35    1
    21    33    37    1
    22    37    38    1
    23    38    39    2
    24    38    40    1
    25    38    41    1
    26     3     4    1
    27     4     5    1
    28     4     6    1
    29     6     7    1
    30    23    24    1
    31    24    25   ar
    32    25    26   ar
    33    26    27   ar
    34    27    28   ar
    35    28    29   ar
    36    29    30    1
    37    16    10   ar
    38     6     1    1
    39    29    24   ar
    40    19    15   ar
    41    20    21    1
    42    35    36    1
    43    40    42    1
    44    41    43    1
    45     5     8    1
    46     7     9    1
@<TRIPOS>MOLECULE
*****
 43 46 0 0 0
SMALL
GASTEIGER

@<TRIPOS>ATOM
      1 C         140.1926  143.9865  160.8843 C.3     1  UNL1        0.2524
      2 O         139.3568  143.7754  159.6568 O.3     1  UNL1       -0.3299
      3 C         140.0595  144.4228  158.5005 C.3     1  UNL1        0.1765
      4 C         141.3296  145.0342  159.0133 C.3     1  UNL1        0.1714
      5 O         142.3400  145.7836  158.1964 O.3     1  UNL1       -0.3794
      6 C         141.4119  144.7645  160.4866 C.3     1  UNL1        0.1909
      7 O         142.5190  145.1970  161.4016 O.3     1  UNL1       -0.3779
      8 H         142.0482  145.8164  157.2719 H       1  UNL1        0.2105
      9 H         142.3293  144.8954  162.3038 H       1  UNL1        0.2106
     10 C         140.8293  142.3998  165.8227 C.ar    1  UNL1        0.0517
     11 C         142.3254  142.4965  165.8710 C.ar    1  UNL1        0.0452
     12 C         143.0868  142.9538  164.6623 C.ar    1  UNL1        0.1412
     13 CL        144.5830  143.0505  164.7105 Cl      1  UNL1       -0.0612
     14 N         142.3522  143.3146  163.4053 N.ar    1  UNL1       -0.2153
     15 C         140.8561  143.2180  163.3570 C.ar    1  UNL1        0.1655
     16 C         140.0946  142.7606  164.5657 C.ar    1  UNL1        0.0696
     17 C         138.6344  142.7643  164.2225 C.ar    1  UNL1        0.1245
     18 N         138.4934  143.2240  162.8017 N.ar    1  UNL1       -0.1642
     19 N         139.8665  143.5044  162.2667 N.ar    1  UNL1       -0.2060
     20 N         140.0679  141.9424  167.0315 N.pl3   1  UNL1       -0.3304
     21 H         139.5811  142.5965  167.5833 H       1  UNL1        0.1471
     22 C         139.8843  140.0800  168.8335 C.3     1  UNL1        0.0262
     23 C         140.0481  140.4884  167.3995 C.3     1  UNL1        0.0941
     24 C         140.1922  139.4429  166.3337 C.ar    1  UNL1        0.0229
     25 C         141.5519  138.9232  165.9717 C.ar    1  UNL1       -0.0005
     26 C         141.6960  137.8777  164.9059 C.ar    1  UNL1       -0.0001
     27 C         140.4803  137.3518  164.2019 C.ar    1  UNL1        0.0023
     28 C         139.1205  137.8715  164.5639 C.ar    1  UNL1        0.0294
     29 C         138.9765  138.9170  165.6298 C.ar    1  UNL1        0.1377
     30 F         137.6167  139.4367  165.9917 F       1  UNL1       -0.2045
     31 C         139.5768  144.4536  157.0806 C.3     1  UNL1        0.1834
     32 O         138.9305  143.2396  156.4817 O.3     1  UNL1       -0.2911
     33 P         137.4688  143.2568  156.1454 P.3     1  UNL1        0.3524
     34 O         137.6363  144.5938  155.4862 O.2     1  UNL1       -0.2573
     35 O         136.0071  143.2742  155.8091 O.3     1  UNL1       -0.3231
     36 H         135.7942  144.0930  155.3347 H       1  UNL1        0.2198
     37 C         137.3013  141.9199  156.8047 C.3     1  UNL1        0.2306
     38 P         136.8274  140.7431  156.0043 P.3     1  UNL1        0.3492
     39 O         136.3535  139.5664  155.2039 O.2     1  UNL1       -0.2575
     40 O         137.8740  141.0267  154.9678 O.3     1  UNL1       -0.3232
     41 O         135.7809  140.4596  157.0407 O.3     1  UNL1       -0.3232
     42 H         138.3885  141.8053  155.2324 H       1  UNL1        0.2198
     43 H         135.8442  141.1160  157.7521 H       1  UNL1        0.2198
@<TRIPOS>BOND
     1    23    22    1
     2    23    20    1
     3    20    10    1
     4    10    11   ar
     5    11    12   ar
     6    12    13    1
     7    12    14   ar
     8    14    15   ar
     9    15    16   ar
    10    16    17   ar
    11    17    18   ar
    12    18    19   ar
    13     1    19    1
    14     1     2    1
    15     2     3    1
    16     3    31    1
    17    31    32    1
    18    32    33    1
    19    33    34    2
    20    33    35    1
    21    33    37    1
    22    37    38    1
    23    38    39    2
    24    38    40    1
    25    38    41    1
    26     3     4    1
    27     4     5    1
    28     4     6    1
    29     6     7    1
    30    23    24    1
    31    24    25   ar
    32    25    26   ar
    33    26    27   ar
    34    27    28   ar
    35    28    29   ar
    36    29    30    1
    37    16    10   ar
    38     6     1    1
    39    29    24   ar
    40    19    15   ar
    41    20    21    1
    42    35    36    1
    43    40    42    1
    44    41    43    1
    45     5     8    1
    46     7     9    1
