@<TRIPOS>MOLECULE
*****
 21 23 0 0 0
SMALL
GASTEIGER

@<TRIPOS>ATOM
      1 C         139.8822  140.7258  168.3542 C.3     1  UNL1        0.0896
      2 N         140.0091  141.4386  168.6878 N.3     1  UNL1       -0.2735
      3 C         139.6098  141.4615  170.1334 C.3     1  UNL1        0.0612
      4 C         139.8849  142.8355  170.6686 C.3     1  UNL1        0.0175
      5 C         140.4542  143.6618  169.5537 C.3     1  UNL1        0.0178
      6 C         140.5310  142.7985  168.3295 C.3     1  UNL1        0.0662
      7 C         140.4917  141.7165  167.2773 C.3     1  UNL1        0.0912
      8 C         139.9465  140.4127  167.7804 C.3     1  UNL1        0.1769
      9 C         139.5056  140.2853  169.2085 C.3     1  UNL1        0.0600
     10 C         140.9326  141.8439  165.8493 C.2     1  UNL1        0.0548
     11 O         142.0460  140.9842  165.3285 O.co2   1  UNL1       -0.5490
     12 O         140.2600  142.8310  164.9420 O.co2   1  UNL1       -0.5490
     13 O         139.8422  139.2364  166.8555 O.3     1  UNL1       -0.4487
     14 C         138.5461  138.9413  166.1607 C.2     1  UNL1        0.3411
     15 O         137.3415  138.5396  166.9593 O.2     1  UNL1       -0.2449
     16 C         138.4544  139.0477  164.6673 C.ar    1  UNL1        0.0756
     17 C         138.8410  137.8813  163.8071 C.ar    1  UNL1        0.0064
     18 C         138.7493  137.9877  162.3137 C.ar    1  UNL1        0.0002
     19 C         138.2711  139.2606  161.6804 C.ar    1  UNL1        0.0000
     20 C         137.8846  140.4271  162.5406 C.ar    1  UNL1        0.0002
     21 C         137.9762  140.3207  164.0340 C.ar    1  UNL1        0.0064
@<TRIPOS>UNITY_ATOM_ATTR
11 1
charge -1
@<TRIPOS>BOND
     1     1     2    1
     2     2     3    1
     3     3     4    1
     4     4     5    1
     5     5     6    1
     6     6     7    1
     7     7    10    1
     8    10    11   ar
     9    10    12   ar
    10     7     8    1
    11     8    13    1
    12    13    14    1
    13    14    15    2
    14    14    16    1
    15    16    17   ar
    16    17    18   ar
    17    18    19   ar
    18    19    20   ar
    19    20    21   ar
    20     8     9    1
    21     6     2    1
    22    21    16   ar
    23     9     3    1
@<TRIPOS>MOLECULE
*****
 21 23 0 0 0
SMALL
GASTEIGER

@<TRIPOS>ATOM
      1 C         140.6418  143.2794  164.1387 C.3     1  UNL1        0.0896
      2 N         141.3462  143.5780  163.9148 N.3     1  UNL1       -0.2735
      3 C         142.4449  143.1960  164.8619 C.3     1  UNL1        0.0612
      4 C         143.7219  143.8009  164.3586 C.3     1  UNL1        0.0175
      5 C         143.4124  144.5568  163.1004 C.3     1  UNL1        0.0178
      6 C         141.9442  144.4190  162.8262 C.3     1  UNL1        0.0662
      7 C         140.4656  144.1147  162.8031 C.3     1  UNL1        0.0912
      8 C         140.0120  143.2649  163.9529 C.3     1  UNL1        0.1769
      9 C         141.0016  142.8055  164.9823 C.3     1  UNL1        0.0600
     10 C         139.4760  144.5740  161.7737 C.2     1  UNL1        0.0548
     11 O         138.6381  145.7916  162.0296 O.co2   1  UNL1       -0.5490
     12 O         139.3242  143.8158  160.4884 O.co2   1  UNL1       -0.5490
     13 O         138.5687  142.8744  164.0733 O.3     1  UNL1       -0.4487
     14 C         138.0666  141.6380  163.3883 C.2     1  UNL1        0.3411
     15 O         137.2996  141.7511  162.1041 O.2     1  UNL1       -0.2449
     16 C         138.3313  140.2886  163.9874 C.ar    1  UNL1        0.0756
     17 C         138.2214  140.0918  165.4703 C.ar    1  UNL1        0.0064
     18 C         138.4862  138.7423  166.0695 C.ar    1  UNL1        0.0002
     19 C         138.8608  137.5898  165.1857 C.ar    1  UNL1        0.0000
     20 C         138.9708  137.7866  163.7026 C.ar    1  UNL1        0.0002
     21 C         138.7060  139.1360  163.1035 C.ar    1  UNL1        0.0064
@<TRIPOS>UNITY_ATOM_ATTR
11 1
charge -1
@<TRIPOS>BOND
     1     1     2    1
     2     2     3    1
     3     3     4    1
     4     4     5    1
     5     5     6    1
     6     6     7    1
     7     7    10    1
     8    10    11   ar
     9    10    12   ar
    10     7     8    1
    11     8    13    1
    12    13    14    1
    13    14    15    2
    14    14    16    1
    15    16    17   ar
    16    17    18   ar
    17    18    19   ar
    18    19    20   ar
    19    20    21   ar
    20     8     9    1
    21     6     2    1
    22    21    16   ar
    23     9     3    1
@<TRIPOS>MOLECULE
*****
 21 23 0 0 0
SMALL
GASTEIGER

@<TRIPOS>ATOM
      1 C         139.7284  142.1181  165.4736 C.3     1  UNL1        0.0896
      2 N         139.2262  142.5048  164.9902 N.3     1  UNL1       -0.2735
      3 C         139.5483  143.9669  164.8989 C.3     1  UNL1        0.0612
      4 C         138.5548  144.6035  163.9727 C.3     1  UNL1        0.0175
      5 C         137.6187  143.5348  163.4916 C.3     1  UNL1        0.0178
      6 C         138.0336  142.2377  164.1205 C.3     1  UNL1        0.0662
      7 C         138.6673  141.0992  164.8831 C.3     1  UNL1        0.0912
      8 C         139.8483  141.5166  165.7085 C.3     1  UNL1        0.1769
      9 C         140.2887  142.9504  165.7164 C.3     1  UNL1        0.0600
     10 C         138.2269  139.6654  164.8752 C.2     1  UNL1        0.0548
     11 O         137.6090  139.0639  166.1026 O.co2   1  UNL1       -0.5490
     12 O         138.4043  138.8331  163.6400 O.co2   1  UNL1       -0.5490
     13 O         140.5887  140.5000  166.5261 O.3     1  UNL1       -0.4487
     14 C         140.4593  140.5008  168.0204 C.2     1  UNL1        0.3411
     15 O         139.4626  139.5998  168.6874 O.2     1  UNL1       -0.2449
     16 C         141.3264  141.4027  168.8479 C.ar    1  UNL1        0.0756
     17 C         140.7540  142.6554  169.4420 C.ar    1  UNL1        0.0064
     18 C         141.6212  143.5572  170.2695 C.ar    1  UNL1        0.0002
     19 C         143.0608  143.2064  170.5028 C.ar    1  UNL1        0.0000
     20 C         143.6333  141.9536  169.9086 C.ar    1  UNL1        0.0002
     21 C         142.7661  141.0518  169.0812 C.ar    1  UNL1        0.0064
@<TRIPOS>UNITY_ATOM_ATTR
11 1
charge -1
@<TRIPOS>BOND
     1     1     2    1
     2     2     3    1
     3     3     4    1
     4     4     5    1
     5     5     6    1
     6     6     7    1
     7     7    10    1
     8    10    11   ar
     9    10    12   ar
    10     7     8    1
    11     8    13    1
    12    13    14    1
    13    14    15    2
    14    14    16    1
    15    16    17   ar
    16    17    18   ar
    17    18    19   ar
    18    19    20   ar
    19    20    21   ar
    20     8     9    1
    21     6     2    1
    22    21    16   ar
    23     9     3    1
@<TRIPOS>MOLECULE
*****
 21 23 0 0 0
SMALL
GASTEIGER

@<TRIPOS>ATOM
      1 C         140.7778  143.7276  164.6431 C.3     1  UNL1        0.0896
      2 N         141.5644  143.8345  164.5716 N.3     1  UNL1       -0.2735
      3 C         141.8947  145.0074  163.6968 C.3     1  UNL1        0.0612
      4 C         143.3883  145.1257  163.6244 C.3     1  UNL1        0.0175
      5 C         143.9811  144.0259  164.4544 C.3     1  UNL1        0.0178
      6 C         142.8539  143.2279  165.0398 C.3     1  UNL1        0.0662
      7 C         141.5438  142.6208  165.4803 C.3     1  UNL1        0.0912
      8 C         140.3414  143.3324  164.9343 C.3     1  UNL1        0.1769
      9 C         140.5169  144.5257  164.0426 C.3     1  UNL1        0.0600
     10 C         141.3683  141.4275  166.3720 C.2     1  UNL1        0.0548
     11 O         141.7342  140.0600  165.8758 O.co2   1  UNL1       -0.5490
     12 O         140.8269  141.6016  167.7600 O.co2   1  UNL1       -0.5490
     13 O         138.9636  142.8507  165.2802 O.3     1  UNL1       -0.4487
     14 C         138.2651  141.8704  164.3850 C.2     1  UNL1        0.3411
     15 O         137.3635  142.3632  163.2921 O.2     1  UNL1       -0.2449
     16 C         138.4682  140.3975  164.5828 C.ar    1  UNL1        0.0756
     17 C         139.0397  139.5637  163.4745 C.ar    1  UNL1        0.0064
     18 C         139.2428  138.0908  163.6723 C.ar    1  UNL1        0.0002
     19 C         138.8744  137.4515  164.9783 C.ar    1  UNL1        0.0000
     20 C         138.3029  138.2853  166.0866 C.ar    1  UNL1        0.0002
     21 C         138.0998  139.7582  165.8889 C.ar    1  UNL1        0.0064
@<TRIPOS>UNITY_ATOM_ATTR
11 1
charge -1
@<TRIPOS>BOND
     1     1     2    1
     2     2     3    1
     3     3     4    1
     4     4     5    1
     5     5     6    1
     6     6     7    1
     7     7    10    1
     8    10    11   ar
     9    10    12   ar
    10     7     8    1
    11     8    13    1
    12    13    14    1
    13    14    15    2
    14    14    16    1
    15    16    17   ar
    16    17    18   ar
    17    18    19   ar
    18    19    20   ar
    19    20    21   ar
    20     8     9    1
    21     6     2    1
    22    21    16   ar
    23     9     3    1
@<TRIPOS>MOLECULE
*****
 21 23 0 0 0
SMALL
GASTEIGER

@<TRIPOS>ATOM
      1 C         143.1885  141.8647  165.5961 C.3     1  UNL1        0.0896
      2 N         143.7458  141.6408  165.0721 N.3     1  UNL1       -0.2735
      3 C         144.3419  142.8132  164.3508 C.3     1  UNL1        0.0612
      4 C         145.3729  142.2931  163.3934 C.3     1  UNL1        0.0175
      5 C         145.4139  140.7992  163.5230 C.3     1  UNL1        0.0178
      6 C         144.4083  140.3962  164.5604 C.3     1  UNL1        0.0662
      7 C         143.3423  140.2873  165.6240 C.3     1  UNL1        0.0912
      8 C         142.7715  141.6118  166.0361 C.3     1  UNL1        0.1769
      9 C         143.2712  142.8747  165.3996 C.3     1  UNL1        0.0600
     10 C         142.8425  139.0244  166.2605 C.2     1  UNL1        0.0548
     11 O         143.2290  138.6917  167.6712 O.co2   1  UNL1       -0.5490
     12 O         141.9563  138.0942  165.4864 O.co2   1  UNL1       -0.5490
     13 O         141.7008  141.6734  167.0849 O.3     1  UNL1       -0.4487
     14 C         140.2832  141.3347  166.7303 C.2     1  UNL1        0.3411
     15 O         139.6523  140.0862  167.2721 O.2     1  UNL1       -0.2449
     16 C         139.4965  142.2443  165.8339 C.ar    1  UNL1        0.0756
     17 C         138.5057  141.6697  164.8654 C.ar    1  UNL1        0.0064
     18 C         137.7189  142.5794  163.9690 C.ar    1  UNL1        0.0002
     19 C         137.9230  144.0637  164.0410 C.ar    1  UNL1        0.0000
     20 C         138.9139  144.6383  165.0096 C.ar    1  UNL1        0.0002
     21 C         139.7007  143.7287  165.9060 C.ar    1  UNL1        0.0064
@<TRIPOS>UNITY_ATOM_ATTR
11 1
charge -1
@<TRIPOS>BOND
     1     1     2    1
     2     2     3    1
     3     3     4    1
     4     4     5    1
     5     5     6    1
     6     6     7    1
     7     7    10    1
     8    10    11   ar
     9    10    12   ar
    10     7     8    1
    11     8    13    1
    12    13    14    1
    13    14    15    2
    14    14    16    1
    15    16    17   ar
    16    17    18   ar
    17    18    19   ar
    18    19    20   ar
    19    20    21   ar
    20     8     9    1
    21     6     2    1
    22    21    16   ar
    23     9     3    1
@<TRIPOS>MOLECULE
*****
 21 23 0 0 0
SMALL
GASTEIGER

@<TRIPOS>ATOM
      1 C         139.9755  141.5729  166.2883 C.3     1  UNL1        0.0896
      2 N         139.5346  142.0305  165.8071 N.3     1  UNL1       -0.2735
      3 C         139.9797  143.4627  165.8305 C.3     1  UNL1        0.0612
      4 C         139.0952  144.2383  164.8998 C.3     1  UNL1        0.0175
      5 C         138.1034  143.2853  164.3012 C.3     1  UNL1        0.0178
      6 C         138.3750  141.9209  164.8619 C.3     1  UNL1        0.0662
      7 C         138.8697  140.6871  165.5777 C.3     1  UNL1        0.0912
      8 C         140.0325  140.9498  166.4882 C.3     1  UNL1        0.1769
      9 C         140.5875  142.3376  166.6146 C.3     1  UNL1        0.0600
     10 C         138.3147  139.2993  165.4514 C.2     1  UNL1        0.0548
     11 O         137.5479  138.6918  166.5884 O.co2   1  UNL1       -0.5490
     12 O         138.5266  138.5190  164.1880 O.co2   1  UNL1       -0.5490
     13 O         140.6403  139.8248  167.2723 O.3     1  UNL1       -0.4487
     14 C         142.0630  139.4199  167.0233 C.2     1  UNL1        0.3411
     15 O         143.0088  139.2560  168.1759 O.2     1  UNL1       -0.2449
     16 C         142.5398  139.1788  165.6217 C.ar    1  UNL1        0.0756
     17 C         141.8334  138.1834  164.7499 C.ar    1  UNL1        0.0064
     18 C         142.3103  137.9423  163.3483 C.ar    1  UNL1        0.0002
     19 C         143.4936  138.6966  162.8185 C.ar    1  UNL1        0.0000
     20 C         144.2001  139.6921  163.6903 C.ar    1  UNL1        0.0002
     21 C         143.7232  139.9332  165.0919 C.ar    1  UNL1        0.0064
@<TRIPOS>UNITY_ATOM_ATTR
11 1
charge -1
@<TRIPOS>BOND
     1     1     2    1
     2     2     3    1
     3     3     4    1
     4     4     5    1
     5     5     6    1
     6     6     7    1
     7     7    10    1
     8    10    11   ar
     9    10    12   ar
    10     7     8    1
    11     8    13    1
    12    13    14    1
    13    14    15    2
    14    14    16    1
    15    16    17   ar
    16    17    18   ar
    17    18    19   ar
    18    19    20   ar
    19    20    21   ar
    20     8     9    1
    21     6     2    1
    22    21    16   ar
    23     9     3    1
@<TRIPOS>MOLECULE
*****
 21 23 0 0 0
SMALL
GASTEIGER

@<TRIPOS>ATOM
      1 C         141.0566  142.2409  168.2404 C.3     1  UNL1        0.0896
      2 N         141.7344  142.3149  168.6532 N.3     1  UNL1       -0.2735
      3 C         141.5499  143.1384  169.8933 C.3     1  UNL1        0.0612
      4 C         142.8722  143.2195  170.5969 C.3     1  UNL1        0.0175
      5 C         143.8739  142.4461  169.7917 C.3     1  UNL1        0.0178
      6 C         143.1707  141.8871  168.5904 C.3     1  UNL1        0.0662
      7 C         142.2202  141.4623  167.4971 C.3     1  UNL1        0.0912
      8 C         140.8202  141.9639  167.6938 C.3     1  UNL1        0.1769
      9 C         140.4851  142.8019  168.8918 C.3     1  UNL1        0.0600
     10 C         142.5553  140.6243  166.2991 C.2     1  UNL1        0.0548
     11 O         142.5464  139.1280  166.4042 O.co2   1  UNL1       -0.5490
     12 O         142.8992  141.2826  164.9959 O.co2   1  UNL1       -0.5490
     13 O         139.7554  141.6274  166.6923 O.3     1  UNL1       -0.4487
     14 C         139.2062  140.2334  166.6213 C.2     1  UNL1        0.3411
     15 O         138.9213  139.4743  167.8834 O.2     1  UNL1       -0.2449
     16 C         138.9418  139.5984  165.2883 C.ar    1  UNL1        0.0756
     17 C         139.3494  138.1762  165.0410 C.ar    1  UNL1        0.0064
     18 C         139.0850  137.5412  163.7080 C.ar    1  UNL1        0.0002
     19 C         138.4131  138.3284  162.6223 C.ar    1  UNL1        0.0000
     20 C         138.0055  139.7507  162.8696 C.ar    1  UNL1        0.0002
     21 C         138.2699  140.3857  164.2026 C.ar    1  UNL1        0.0064
@<TRIPOS>UNITY_ATOM_ATTR
11 1
charge -1
@<TRIPOS>BOND
     1     1     2    1
     2     2     3    1
     3     3     4    1
     4     4     5    1
     5     5     6    1
     6     6     7    1
     7     7    10    1
     8    10    11   ar
     9    10    12   ar
    10     7     8    1
    11     8    13    1
    12    13    14    1
    13    14    15    2
    14    14    16    1
    15    16    17   ar
    16    17    18   ar
    17    18    19   ar
    18    19    20   ar
    19    20    21   ar
    20     8     9    1
    21     6     2    1
    22    21    16   ar
    23     9     3    1
@<TRIPOS>MOLECULE
*****
 21 23 0 0 0
SMALL
GASTEIGER

@<TRIPOS>ATOM
      1 C         140.4322  139.2090  165.8008 C.3     1  UNL1        0.0896
      2 N         140.4035  138.7529  165.1477 N.3     1  UNL1       -0.2735
      3 C         139.0033  138.5950  164.6336 C.3     1  UNL1        0.0612
      4 C         139.0532  137.7266  163.4116 C.3     1  UNL1        0.0175
      5 C         140.4844  137.3477  163.1704 C.3     1  UNL1        0.0178
      6 C         141.3189  137.9820  164.2433 C.3     1  UNL1        0.0662
      7 C         141.8946  138.7289  165.4224 C.3     1  UNL1        0.0912
      8 C         140.8614  139.4520  166.2345 C.3     1  UNL1        0.1769
      9 C         139.4157  139.3851  165.8401 C.3     1  UNL1        0.0600
     10 C         143.3403  138.7958  165.8167 C.2     1  UNL1        0.0548
     11 O         143.7947  138.1818  167.1077 O.co2   1  UNL1       -0.5490
     12 O         144.3315  139.4767  164.9202 O.co2   1  UNL1       -0.5490
     13 O         141.2739  140.2421  167.4410 O.3     1  UNL1       -0.4487
     14 C         141.2766  141.7412  167.3909 C.2     1  UNL1        0.3411
     15 O         140.5049  142.5271  168.4092 O.2     1  UNL1       -0.2449
     16 C         142.0510  142.4545  166.3225 C.ar    1  UNL1        0.0756
     17 C         143.5427  142.5702  166.4280 C.ar    1  UNL1        0.0064
     18 C         144.3171  143.2835  165.3595 C.ar    1  UNL1        0.0002
     19 C         143.5997  143.8811  164.1856 C.ar    1  UNL1        0.0000
     20 C         142.1079  143.7654  164.0800 C.ar    1  UNL1        0.0002
     21 C         141.3335  143.0521  165.1485 C.ar    1  UNL1        0.0064
@<TRIPOS>UNITY_ATOM_ATTR
11 1
charge -1
@<TRIPOS>BOND
     1     1     2    1
     2     2     3    1
     3     3     4    1
     4     4     5    1
     5     5     6    1
     6     6     7    1
     7     7    10    1
     8    10    11   ar
     9    10    12   ar
    10     7     8    1
    11     8    13    1
    12    13    14    1
    13    14    15    2
    14    14    16    1
    15    16    17   ar
    16    17    18   ar
    17    18    19   ar
    18    19    20   ar
    19    20    21   ar
    20     8     9    1
    21     6     2    1
    22    21    16   ar
    23     9     3    1
@<TRIPOS>MOLECULE
*****
 21 23 0 0 0
SMALL
GASTEIGER

@<TRIPOS>ATOM
      1 C         139.7390  141.2207  166.0862 C.3     1  UNL1        0.0896
      2 N         139.5703  141.9580  165.8347 N.3     1  UNL1       -0.2735
      3 C         138.4551  141.9681  164.8316 C.3     1  UNL1        0.0612
      4 C         138.2133  143.3905  164.4215 C.3     1  UNL1        0.0175
      5 C         139.1791  144.2596  165.1711 C.3     1  UNL1        0.0178
      6 C         140.0178  143.3742  166.0445 C.3     1  UNL1        0.0662
      7 C         140.6959  142.2601  166.8048 C.3     1  UNL1        0.0912
      8 C         140.1435  140.9008  166.4930 C.3     1  UNL1        0.1769
      9 C         139.0231  140.7548  165.5064 C.3     1  UNL1        0.0600
     10 C         141.8163  142.4061  167.7914 C.2     1  UNL1        0.0548
     11 O         143.2391  142.4034  167.3163 O.co2   1  UNL1       -0.5490
     12 O         141.5139  142.5548  169.2530 O.co2   1  UNL1       -0.5490
     13 O         140.7115  139.6875  167.1678 O.3     1  UNL1       -0.4487
     14 C         142.0791  139.1948  166.7979 C.2     1  UNL1        0.3411
     15 O         143.1259  139.0211  167.8581 O.2     1  UNL1       -0.2449
     16 C         142.4000  138.8759  165.3677 C.ar    1  UNL1        0.0756
     17 C         143.6468  139.4235  164.7387 C.ar    1  UNL1        0.0064
     18 C         143.9677  139.1046  163.3086 C.ar    1  UNL1        0.0002
     19 C         143.0418  138.2379  162.5075 C.ar    1  UNL1        0.0000
     20 C         141.7950  137.6902  163.1365 C.ar    1  UNL1        0.0002
     21 C         141.4741  138.0092  164.5666 C.ar    1  UNL1        0.0064
@<TRIPOS>UNITY_ATOM_ATTR
11 1
charge -1
@<TRIPOS>BOND
     1     1     2    1
     2     2     3    1
     3     3     4    1
     4     4     5    1
     5     5     6    1
     6     6     7    1
     7     7    10    1
     8    10    11   ar
     9    10    12   ar
    10     7     8    1
    11     8    13    1
    12    13    14    1
    13    14    15    2
    14    14    16    1
    15    16    17   ar
    16    17    18   ar
    17    18    19   ar
    18    19    20   ar
    19    20    21   ar
    20     8     9    1
    21     6     2    1
    22    21    16   ar
    23     9     3    1
