@<TRIPOS>MOLECULE
*****
 35 37 0 0 0
SMALL
GASTEIGER

@<TRIPOS>ATOM
      1 C         142.1114  142.5340  161.6689 C.2     1  UNL1        0.2443
      2 O         141.2773  141.8636  162.7200 O.2     1  UNL1       -0.2731
      3 N         142.7344  141.7199  160.5738 N.am    1  UNL1       -0.2682
      4 C         143.5887  142.2479  159.4597 C.3     1  UNL1        0.1206
      5 C         143.9948  141.0893  158.5979 C.2     1  UNL1       -0.0024
      6 C         143.3914  139.8452  159.1793 C.2     1  UNL1       -0.0047
      7 C         142.6124  140.2349  160.4005 C.3     1  UNL1        0.1203
      8 C         144.8535  141.1620  157.3701 C.ar    1  UNL1        0.0271
      9 C         144.5868  140.2456  156.2129 C.ar    1  UNL1        0.0316
     10 C         145.4455  140.3184  154.9852 C.ar    1  UNL1        0.1403
     11 F         145.1788  139.4020  153.8280 F       1  UNL1       -0.2042
     12 C         146.5710  141.3075  154.9147 C.ar    1  UNL1        0.0319
     13 C         146.8377  142.2238  156.0719 C.ar    1  UNL1        0.0319
     14 C         145.9790  142.1511  157.2996 C.ar    1  UNL1        0.1400
     15 F         146.2457  143.0675  158.4568 F       1  UNL1       -0.2042
     16 C         141.8459  139.3033  161.2919 C.ar    1  UNL1       -0.0001
     17 C         142.5179  138.6782  162.4784 C.ar    1  UNL1       -0.0023
     18 C         141.7515  137.7465  163.3698 C.ar    1  UNL1       -0.0003
     19 C         140.3131  137.4400  163.0747 C.ar    1  UNL1       -0.0000
     20 C         139.6411  138.0651  161.8882 C.ar    1  UNL1       -0.0003
     21 C         140.4076  138.9967  160.9969 C.ar    1  UNL1       -0.0023
     22 C         142.3225  144.0184  161.7128 C.3     1  UNL1        0.1512
     23 C         141.6882  145.2390  163.3276 C.3     1  UNL1        0.0021
     24 C         142.9966  144.6453  162.8970 C.3     1  UNL1        0.0251
     25 C         144.3051  144.0515  162.4665 C.3     1  UNL1        0.0021
     26 C         143.6708  145.2722  164.0813 C.3     1  UNL1        0.0021
     27 N         141.8594  144.8759  160.5725 N.am    1  UNL1       -0.2640
     28 C         140.4027  144.9316  160.2195 C.2     1  UNL1        0.4020
     29 O         139.4089  144.1299  161.0067 O.2     1  UNL1       -0.2264
     30 H         142.5116  145.4021  160.0558 H       1  UNL1        0.1532
     31 O         139.9396  145.7891  159.0792 O.3     1  UNL1       -0.4319
     32 C         140.2556  145.3939  157.6670 C.3     1  UNL1        0.2417
     33 C         141.4947  145.9155  157.0017 C.3     1  UNL1        0.1849
     34 O         142.6564  146.3732  157.8330 O.3     1  UNL1       -0.3784
     35 H         142.4012  147.1597  158.3401 H       1  UNL1        0.2106
@<TRIPOS>BOND
     1    23    24    1
     2    24    25    1
     3    24    26    1
     4    24    22    1
     5    22    27    1
     6    27    28   am
     7    28    29    2
     8    28    31    1
     9    31    32    1
    10    32    33    1
    11    33    34    1
    12    22     1    1
    13     1     2    2
    14     1     3   am
    15     3     4    1
    16     4     5    1
    17     5     8    1
    18     8     9   ar
    19     9    10   ar
    20    10    11    1
    21    10    12   ar
    22    12    13   ar
    23    13    14   ar
    24    14    15    1
    25     5     6    2
    26     6     7    1
    27     7    16    1
    28    16    17   ar
    29    17    18   ar
    30    18    19   ar
    31    19    20   ar
    32    20    21   ar
    33     7     3    1
    34    21    16   ar
    35    14     8   ar
    36    27    30    1
    37    34    35    1
@<TRIPOS>MOLECULE
*****
 35 37 0 0 0
SMALL
GASTEIGER

@<TRIPOS>ATOM
      1 C         140.6864  142.2862  163.0160 C.2     1  UNL1        0.2443
      2 O         141.0154  141.5935  161.7268 O.2     1  UNL1       -0.2731
      3 N         141.1330  141.6950  164.3202 N.am    1  UNL1       -0.2682
      4 C         140.8796  142.2706  165.6820 C.3     1  UNL1        0.1206
      5 C         141.5015  141.3558  166.6951 C.2     1  UNL1       -0.0024
      6 C         142.1392  140.2147  165.9595 C.2     1  UNL1       -0.0047
      7 C         141.9115  140.4243  164.4917 C.3     1  UNL1        0.1203
      8 C         141.4879  141.5482  168.1827 C.ar    1  UNL1        0.0271
      9 C         142.4399  142.5147  168.8226 C.ar    1  UNL1        0.0316
     10 C         142.4264  142.7072  170.3101 C.ar    1  UNL1        0.1403
     11 F         143.3784  143.6737  170.9500 F       1  UNL1       -0.2042
     12 C         141.4608  141.9331  171.1577 C.ar    1  UNL1        0.0319
     13 C         140.5087  140.9666  170.5178 C.ar    1  UNL1        0.0319
     14 C         140.5223  140.7742  169.0303 C.ar    1  UNL1        0.1400
     15 F         139.5703  139.8076  168.3903 F       1  UNL1       -0.2042
     16 C         142.3800  139.5217  163.3891 C.ar    1  UNL1       -0.0001
     17 C         141.4610  138.4727  162.8369 C.ar    1  UNL1       -0.0023
     18 C         141.9295  137.5702  161.7343 C.ar    1  UNL1       -0.0003
     19 C         143.3171  137.7166  161.1838 C.ar    1  UNL1       -0.0000
     20 C         144.2362  138.7657  161.7359 C.ar    1  UNL1       -0.0003
     21 C         143.7676  139.6681  162.8385 C.ar    1  UNL1       -0.0023
     22 C         139.9107  143.5700  163.0010 C.3     1  UNL1        0.1512
     23 C         139.3067  144.9056  164.5344 C.3     1  UNL1        0.0021
     24 C         138.6887  143.7179  163.8581 C.3     1  UNL1        0.0251
     25 C         138.0706  142.5302  163.1818 C.3     1  UNL1        0.0021
     26 C         137.4666  143.8658  164.7152 C.3     1  UNL1        0.0021
     27 N         140.3572  144.7058  162.1289 N.am    1  UNL1       -0.2640
     28 C         139.9698  144.7361  160.6802 C.2     1  UNL1        0.4020
     29 O         139.1360  143.6306  160.1035 O.2     1  UNL1       -0.2264
     30 H         140.9044  145.4314  162.5075 H       1  UNL1        0.1532
     31 O         140.4163  145.8720  159.8081 O.3     1  UNL1       -0.4319
     32 C         140.4043  145.7213  158.3157 C.3     1  UNL1        0.2417
     33 C         141.6819  145.8443  157.5392 C.3     1  UNL1        0.1849
     34 O         142.8776  145.0264  157.9280 O.3     1  UNL1       -0.3784
     35 H         143.1911  145.3072  158.8019 H       1  UNL1        0.2106
@<TRIPOS>BOND
     1    23    24    1
     2    24    25    1
     3    24    26    1
     4    24    22    1
     5    22    27    1
     6    27    28   am
     7    28    29    2
     8    28    31    1
     9    31    32    1
    10    32    33    1
    11    33    34    1
    12    22     1    1
    13     1     2    2
    14     1     3   am
    15     3     4    1
    16     4     5    1
    17     5     8    1
    18     8     9   ar
    19     9    10   ar
    20    10    11    1
    21    10    12   ar
    22    12    13   ar
    23    13    14   ar
    24    14    15    1
    25     5     6    2
    26     6     7    1
    27     7    16    1
    28    16    17   ar
    29    17    18   ar
    30    18    19   ar
    31    19    20   ar
    32    20    21   ar
    33     7     3    1
    34    21    16   ar
    35    14     8   ar
    36    27    30    1
    37    34    35    1
@<TRIPOS>MOLECULE
*****
 35 37 0 0 0
SMALL
GASTEIGER

@<TRIPOS>ATOM
      1 C         142.4293  142.6836  161.9756 C.2     1  UNL1        0.2443
      2 O         142.8277  141.9771  160.7137 O.2     1  UNL1       -0.2731
      3 N         141.9749  141.8928  163.1664 N.am    1  UNL1       -0.2682
      4 C         141.5478  142.4573  164.4889 C.3     1  UNL1        0.1206
      5 C         141.1767  141.3120  165.3837 C.2     1  UNL1       -0.0024
      6 C         141.3744  140.0397  164.6143 C.2     1  UNL1       -0.0047
      7 C         141.8677  140.3986  163.2439 C.3     1  UNL1        0.1203
      8 C         140.6929  141.4202  166.7994 C.ar    1  UNL1        0.0271
      9 C         140.9542  142.6691  167.5880 C.ar    1  UNL1        0.0316
     10 C         140.4704  142.7771  169.0037 C.ar    1  UNL1        0.1403
     11 F         140.7317  144.0261  169.7924 F       1  UNL1       -0.2042
     12 C         139.7252  141.6363  169.6308 C.ar    1  UNL1        0.0319
     13 C         139.4638  140.3875  168.8422 C.ar    1  UNL1        0.0319
     14 C         139.9477  140.2794  167.4265 C.ar    1  UNL1        0.1400
     15 F         139.6863  139.0304  166.6379 F       1  UNL1       -0.2042
     16 C         142.1961  139.4329  162.1441 C.ar    1  UNL1       -0.0001
     17 C         141.2037  139.1780  161.0486 C.ar    1  UNL1       -0.0023
     18 C         141.5322  138.2123  159.9488 C.ar    1  UNL1       -0.0003
     19 C         142.8530  137.5015  159.9446 C.ar    1  UNL1       -0.0000
     20 C         143.8455  137.7563  161.0401 C.ar    1  UNL1       -0.0003
     21 C         143.5170  138.7220  162.1398 C.ar    1  UNL1       -0.0023
     22 C         142.4853  144.1808  162.0465 C.3     1  UNL1        0.1512
     23 C         144.4357  144.2042  162.8803 C.3     1  UNL1        0.0021
     24 C         143.1274  144.8523  163.2241 C.3     1  UNL1        0.0251
     25 C         141.8191  145.5005  163.5679 C.3     1  UNL1        0.0021
     26 C         143.7695  145.5238  164.4017 C.3     1  UNL1        0.0021
     27 N         141.8992  145.0066  160.9399 N.am    1  UNL1       -0.2640
     28 C         140.4674  144.8129  160.5371 C.2     1  UNL1        0.4020
     29 O         139.6216  143.7934  161.2410 O.2     1  UNL1       -0.2264
     30 H         142.4543  145.6757  160.4779 H       1  UNL1        0.1532
     31 O         139.8813  145.6386  159.4305 O.3     1  UNL1       -0.4319
     32 C         140.1512  145.2759  158.0002 C.3     1  UNL1        0.2417
     33 C         141.3149  145.8877  157.2781 C.3     1  UNL1        0.1849
     34 O         142.6060  146.1267  158.0032 O.3     1  UNL1       -0.3784
     35 H         142.4712  146.7972  158.6912 H       1  UNL1        0.2106
@<TRIPOS>BOND
     1    23    24    1
     2    24    25    1
     3    24    26    1
     4    24    22    1
     5    22    27    1
     6    27    28   am
     7    28    29    2
     8    28    31    1
     9    31    32    1
    10    32    33    1
    11    33    34    1
    12    22     1    1
    13     1     2    2
    14     1     3   am
    15     3     4    1
    16     4     5    1
    17     5     8    1
    18     8     9   ar
    19     9    10   ar
    20    10    11    1
    21    10    12   ar
    22    12    13   ar
    23    13    14   ar
    24    14    15    1
    25     5     6    2
    26     6     7    1
    27     7    16    1
    28    16    17   ar
    29    17    18   ar
    30    18    19   ar
    31    19    20   ar
    32    20    21   ar
    33     7     3    1
    34    21    16   ar
    35    14     8   ar
    36    27    30    1
    37    34    35    1
@<TRIPOS>MOLECULE
*****
 35 37 0 0 0
SMALL
GASTEIGER

@<TRIPOS>ATOM
      1 C         142.0647  141.3330  162.4803 C.2     1  UNL1        0.2443
      2 O         141.3548  140.6530  161.3473 O.2     1  UNL1       -0.2731
      3 N         141.5076  141.2523  163.8707 N.am    1  UNL1       -0.2682
      4 C         142.1035  141.8779  165.0969 C.3     1  UNL1        0.1206
      5 C         141.2210  141.5441  166.2631 C.2     1  UNL1       -0.0024
      6 C         140.0797  140.7123  165.7576 C.2     1  UNL1       -0.0047
      7 C         140.2568  140.5320  164.2790 C.3     1  UNL1        0.1203
      8 C         141.4412  141.9678  167.6851 C.ar    1  UNL1        0.0271
      9 C         140.6859  143.1365  168.2450 C.ar    1  UNL1        0.0316
     10 C         140.9061  143.5601  169.6670 C.ar    1  UNL1        0.1403
     11 F         140.1507  144.7289  170.2269 F       1  UNL1       -0.2042
     12 C         141.8817  142.8151  170.5290 C.ar    1  UNL1        0.0319
     13 C         142.6370  141.6464  169.9691 C.ar    1  UNL1        0.0319
     14 C         142.4168  141.2227  168.5471 C.ar    1  UNL1        0.1400
     15 F         143.1722  140.0540  167.9872 F       1  UNL1       -0.2042
     16 C         139.3435  139.7658  163.3686 C.ar    1  UNL1       -0.0001
     17 C         138.3372  140.4951  162.5286 C.ar    1  UNL1       -0.0023
     18 C         137.4239  139.7290  161.6182 C.ar    1  UNL1       -0.0003
     19 C         137.5169  138.2336  161.5478 C.ar    1  UNL1       -0.0000
     20 C         138.5232  137.5042  162.3878 C.ar    1  UNL1       -0.0003
     21 C         139.4364  138.2704  163.2982 C.ar    1  UNL1       -0.0023
     22 C         143.3316  142.0937  162.2229 C.3     1  UNL1        0.1512
     23 C         144.6634  143.2175  163.4325 C.3     1  UNL1        0.0021
     24 C         144.5678  141.7807  163.0126 C.3     1  UNL1        0.0251
     25 C         144.4723  140.3439  162.5927 C.3     1  UNL1        0.0021
     26 C         145.8041  141.4677  163.8023 C.3     1  UNL1        0.0021
     27 N         143.3622  143.1673  161.1759 N.am    1  UNL1       -0.2640
     28 C         143.5951  142.8068  159.7387 C.2     1  UNL1        0.4020
     29 O         143.7974  141.3727  159.3485 O.2     1  UNL1       -0.2264
     30 H         143.2295  144.1086  161.4320 H       1  UNL1        0.1532
     31 O         143.6258  143.8805  158.6916 O.3     1  UNL1       -0.4319
     32 C         142.3515  144.3281  158.0388 C.3     1  UNL1        0.2417
     33 C         141.4877  145.3565  158.7068 C.3     1  UNL1        0.1849
     34 O         141.6130  145.5976  160.1820 O.3     1  UNL1       -0.3784
     35 H         141.3259  144.8065  160.6643 H       1  UNL1        0.2106
@<TRIPOS>BOND
     1    23    24    1
     2    24    25    1
     3    24    26    1
     4    24    22    1
     5    22    27    1
     6    27    28   am
     7    28    29    2
     8    28    31    1
     9    31    32    1
    10    32    33    1
    11    33    34    1
    12    22     1    1
    13     1     2    2
    14     1     3   am
    15     3     4    1
    16     4     5    1
    17     5     8    1
    18     8     9   ar
    19     9    10   ar
    20    10    11    1
    21    10    12   ar
    22    12    13   ar
    23    13    14   ar
    24    14    15    1
    25     5     6    2
    26     6     7    1
    27     7    16    1
    28    16    17   ar
    29    17    18   ar
    30    18    19   ar
    31    19    20   ar
    32    20    21   ar
    33     7     3    1
    34    21    16   ar
    35    14     8   ar
    36    27    30    1
    37    34    35    1
@<TRIPOS>MOLECULE
*****
 35 37 0 0 0
SMALL
GASTEIGER

@<TRIPOS>ATOM
      1 C         140.4227  140.5845  163.3645 C.2     1  UNL1        0.2443
      2 O         140.1566  141.4245  162.1505 O.2     1  UNL1       -0.2731
      3 N         140.5263  141.2295  164.7148 N.am    1  UNL1       -0.2682
      4 C         140.7873  140.5227  166.0118 C.3     1  UNL1        0.1206
      5 C         140.8094  141.5509  167.1037 C.2     1  UNL1       -0.0024
      6 C         140.5620  142.8932  166.4816 C.2     1  UNL1       -0.0047
      7 C         140.3870  142.6946  165.0051 C.3     1  UNL1        0.1203
      8 C         141.0387  141.2837  168.5619 C.ar    1  UNL1        0.0271
      9 C         140.0970  140.3945  169.3185 C.ar    1  UNL1        0.0316
     10 C         140.3263  140.1273  170.7766 C.ar    1  UNL1        0.1403
     11 F         139.3846  139.2381  171.5333 F       1  UNL1       -0.2042
     12 C         141.4973  140.7494  171.4780 C.ar    1  UNL1        0.0319
     13 C         142.4389  141.6385  170.7213 C.ar    1  UNL1        0.0319
     14 C         142.2096  141.9057  169.2633 C.ar    1  UNL1        0.1400
     15 F         143.1513  142.7949  168.5065 F       1  UNL1       -0.2042
     16 C         140.1197  143.7718  163.9961 C.ar    1  UNL1       -0.0001
     17 C         138.7120  144.0698  163.5723 C.ar    1  UNL1       -0.0023
     18 C         138.4447  145.1471  162.5633 C.ar    1  UNL1       -0.0003
     19 C         139.5850  145.9263  161.9782 C.ar    1  UNL1       -0.0000
     20 C         140.9928  145.6284  162.4021 C.ar    1  UNL1       -0.0003
     21 C         141.2600  144.5511  163.4111 C.ar    1  UNL1       -0.0023
     22 C         140.5851  139.0996  163.2282 C.3     1  UNL1        0.1512
     23 C         141.0032  137.4561  164.5026 C.3     1  UNL1        0.0021
     24 C         139.7589  138.1742  164.0714 C.3     1  UNL1        0.0251
     25 C         138.5146  138.8924  163.6402 C.3     1  UNL1        0.0021
     26 C         138.9326  137.2489  164.9145 C.3     1  UNL1        0.0021
     27 N         141.5738  138.5400  162.2487 N.am    1  UNL1       -0.2640
     28 C         141.1617  138.2868  160.8289 C.2     1  UNL1        0.4020
     29 O         139.7610  138.5931  160.3885 O.2     1  UNL1       -0.2264
     30 H         142.4932  138.3390  162.5377 H       1  UNL1        0.1532
     31 O         142.1505  137.7272  159.8494 O.3     1  UNL1       -0.4319
     32 C         143.0895  138.6452  159.1243 C.3     1  UNL1        0.2417
     33 C         143.9871  139.5642  159.8987 C.3     1  UNL1        0.1849
     34 O         144.5207  139.1411  161.2352 O.3     1  UNL1       -0.3784
     35 H         143.7876  139.0612  161.8654 H       1  UNL1        0.2106
@<TRIPOS>BOND
     1    23    24    1
     2    24    25    1
     3    24    26    1
     4    24    22    1
     5    22    27    1
     6    27    28   am
     7    28    29    2
     8    28    31    1
     9    31    32    1
    10    32    33    1
    11    33    34    1
    12    22     1    1
    13     1     2    2
    14     1     3   am
    15     3     4    1
    16     4     5    1
    17     5     8    1
    18     8     9   ar
    19     9    10   ar
    20    10    11    1
    21    10    12   ar
    22    12    13   ar
    23    13    14   ar
    24    14    15    1
    25     5     6    2
    26     6     7    1
    27     7    16    1
    28    16    17   ar
    29    17    18   ar
    30    18    19   ar
    31    19    20   ar
    32    20    21   ar
    33     7     3    1
    34    21    16   ar
    35    14     8   ar
    36    27    30    1
    37    34    35    1
@<TRIPOS>MOLECULE
*****
 35 37 0 0 0
SMALL
GASTEIGER

@<TRIPOS>ATOM
      1 C         141.2317  140.5826  163.0982 C.2     1  UNL1        0.2443
      2 O         140.9195  141.3904  161.8735 O.2     1  UNL1       -0.2731
      3 N         141.1859  141.2256  164.4526 N.am    1  UNL1       -0.2682
      4 C         141.4720  140.5485  165.7602 C.3     1  UNL1        0.1206
      5 C         141.3088  141.5630  166.8530 C.2     1  UNL1       -0.0024
      6 C         140.9218  142.8671  166.2208 C.2     1  UNL1       -0.0047
      7 C         140.8458  142.6585  164.7373 C.3     1  UNL1        0.1203
      8 C         141.4992  141.3167  168.3204 C.ar    1  UNL1        0.0271
      9 C         140.4803  140.5264  169.0866 C.ar    1  UNL1        0.0316
     10 C         140.6707  140.2801  170.5539 C.ar    1  UNL1        0.1403
     11 F         139.6517  139.4898  171.3202 F       1  UNL1       -0.2042
     12 C         141.8801  140.8241  171.2550 C.ar    1  UNL1        0.0319
     13 C         142.8991  141.6143  170.4887 C.ar    1  UNL1        0.0319
     14 C         142.7086  141.8606  169.0214 C.ar    1  UNL1        0.1400
     15 F         143.7276  142.6509  168.2551 F       1  UNL1       -0.2042
     16 C         140.4918  143.7001  163.7175 C.ar    1  UNL1       -0.0001
     17 C         139.0525  144.0031  163.4234 C.ar    1  UNL1       -0.0023
     18 C         138.6986  145.0447  162.4036 C.ar    1  UNL1       -0.0003
     19 C         139.7840  145.7831  161.6780 C.ar    1  UNL1       -0.0000
     20 C         141.2234  145.4801  161.9722 C.ar    1  UNL1       -0.0003
     21 C         141.5772  144.4386  162.9919 C.ar    1  UNL1       -0.0023
     22 C         141.5899  139.1318  162.9685 C.3     1  UNL1        0.1512
     23 C         143.7033  139.2542  162.8338 C.3     1  UNL1        0.0021
     24 C         142.6154  138.6994  161.9628 C.3     1  UNL1        0.0251
     25 C         141.5274  138.1447  161.0919 C.3     1  UNL1        0.0021
     26 C         143.6408  138.2671  160.9571 C.3     1  UNL1        0.0021
     27 N         140.9225  138.1133  163.8445 N.am    1  UNL1       -0.2640
     28 C         139.4256  138.0296  163.8910 C.2     1  UNL1        0.4020
     29 O         138.5961  138.9644  163.0615 O.2     1  UNL1       -0.2264
     30 H         141.4670  137.4997  164.3889 H       1  UNL1        0.1532
     31 O         138.7583  137.0111  164.7670 O.3     1  UNL1       -0.4319
     32 C         138.1196  137.4342  166.0567 C.3     1  UNL1        0.2417
     33 C         138.2573  138.8500  166.5327 C.3     1  UNL1        0.1849
     34 O         137.7725  139.9805  165.6742 O.3     1  UNL1       -0.3784
     35 H         138.3095  140.0274  164.8678 H       1  UNL1        0.2106
@<TRIPOS>BOND
     1    23    24    1
     2    24    25    1
     3    24    26    1
     4    24    22    1
     5    22    27    1
     6    27    28   am
     7    28    29    2
     8    28    31    1
     9    31    32    1
    10    32    33    1
    11    33    34    1
    12    22     1    1
    13     1     2    2
    14     1     3   am
    15     3     4    1
    16     4     5    1
    17     5     8    1
    18     8     9   ar
    19     9    10   ar
    20    10    11    1
    21    10    12   ar
    22    12    13   ar
    23    13    14   ar
    24    14    15    1
    25     5     6    2
    26     6     7    1
    27     7    16    1
    28    16    17   ar
    29    17    18   ar
    30    18    19   ar
    31    19    20   ar
    32    20    21   ar
    33     7     3    1
    34    21    16   ar
    35    14     8   ar
    36    27    30    1
    37    34    35    1
@<TRIPOS>MOLECULE
*****
 35 37 0 0 0
SMALL
GASTEIGER

@<TRIPOS>ATOM
      1 C         140.6054  140.5670  163.0738 C.2     1  UNL1        0.2443
      2 O         140.3006  141.4048  161.8675 O.2     1  UNL1       -0.2731
      3 N         140.7521  141.2144  164.4189 N.am    1  UNL1       -0.2682
      4 C         141.0545  140.5100  165.7082 C.3     1  UNL1        0.1206
      5 C         141.1115  141.5402  166.7971 C.2     1  UNL1       -0.0024
      6 C         140.8443  142.8813  166.1807 C.2     1  UNL1       -0.0047
      7 C         140.6222  142.6800  164.7110 C.3     1  UNL1        0.1203
      8 C         141.3872  141.2756  168.2476 C.ar    1  UNL1        0.0271
      9 C         140.4034  140.4950  169.0678 C.ar    1  UNL1        0.0316
     10 C         140.6792  140.2305  170.5183 C.ar    1  UNL1        0.1403
     11 F         139.6953  139.4499  171.3386 F       1  UNL1       -0.2042
     12 C         141.9387  140.7465  171.1486 C.ar    1  UNL1        0.0319
     13 C         142.9226  141.5270  170.3283 C.ar    1  UNL1        0.0319
     14 C         142.6468  141.7916  168.8779 C.ar    1  UNL1        0.1400
     15 F         143.6306  142.5722  168.0576 F       1  UNL1       -0.2042
     16 C         140.3228  143.7555  163.7091 C.ar    1  UNL1       -0.0001
     17 C         138.9034  144.1664  163.4515 C.ar    1  UNL1       -0.0023
     18 C         138.6040  145.2419  162.4496 C.ar    1  UNL1       -0.0003
     19 C         139.7240  145.9064  161.7054 C.ar    1  UNL1       -0.0000
     20 C         141.1435  145.4955  161.9630 C.ar    1  UNL1       -0.0003
     21 C         141.4428  144.4201  162.9649 C.ar    1  UNL1       -0.0023
     22 C         140.7633  139.0818  162.9351 C.3     1  UNL1        0.1512
     23 C         141.0340  137.3776  164.1689 C.3     1  UNL1        0.0021
     24 C         139.8486  138.1573  163.6824 C.3     1  UNL1        0.0251
     25 C         138.6631  138.9370  163.1959 C.3     1  UNL1        0.0021
     26 C         138.9338  137.2328  164.4296 C.3     1  UNL1        0.0021
     27 N         141.8361  138.5212  162.0491 N.am    1  UNL1       -0.2640
     28 C         141.5693  138.3137  160.5878 C.2     1  UNL1        0.4020
     29 O         140.2299  138.6668  160.0123 O.2     1  UNL1       -0.2264
     30 H         142.7152  138.2895  162.4268 H       1  UNL1        0.1532
     31 O         142.6421  137.7530  159.7018 O.3     1  UNL1       -0.4319
     32 C         142.6739  138.1095  158.2450 C.3     1  UNL1        0.2417
     33 C         141.8502  137.3292  157.2638 C.3     1  UNL1        0.1849
     34 O         140.3670  137.5416  157.1935 O.3     1  UNL1       -0.3784
     35 H         139.9582  137.2442  158.0213 H       1  UNL1        0.2106
@<TRIPOS>BOND
     1    23    24    1
     2    24    25    1
     3    24    26    1
     4    24    22    1
     5    22    27    1
     6    27    28   am
     7    28    29    2
     8    28    31    1
     9    31    32    1
    10    32    33    1
    11    33    34    1
    12    22     1    1
    13     1     2    2
    14     1     3   am
    15     3     4    1
    16     4     5    1
    17     5     8    1
    18     8     9   ar
    19     9    10   ar
    20    10    11    1
    21    10    12   ar
    22    12    13   ar
    23    13    14   ar
    24    14    15    1
    25     5     6    2
    26     6     7    1
    27     7    16    1
    28    16    17   ar
    29    17    18   ar
    30    18    19   ar
    31    19    20   ar
    32    20    21   ar
    33     7     3    1
    34    21    16   ar
    35    14     8   ar
    36    27    30    1
    37    34    35    1
@<TRIPOS>MOLECULE
*****
 35 37 0 0 0
SMALL
GASTEIGER

@<TRIPOS>ATOM
      1 C         140.4797  139.9973  165.9749 C.2     1  UNL1        0.2443
      2 O         140.7639  139.7822  167.4320 O.2     1  UNL1       -0.2731
      3 N         140.7917  141.3186  165.3371 N.am    1  UNL1       -0.2682
      4 C         140.5639  141.6791  163.8990 C.3     1  UNL1        0.1206
      5 C         141.0176  143.0947  163.6984 C.2     1  UNL1       -0.0024
      6 C         141.5258  143.6091  165.0126 C.2     1  UNL1       -0.0047
      7 C         141.3862  142.5115  166.0253 C.3     1  UNL1        0.1203
      8 C         140.9712  143.8613  162.4099 C.ar    1  UNL1        0.0271
      9 C         141.8524  143.4578  161.2650 C.ar    1  UNL1        0.0316
     10 C         141.8059  144.2243  159.9765 C.ar    1  UNL1        0.1403
     11 F         142.6871  143.8208  158.8316 F       1  UNL1       -0.2042
     12 C         140.8784  145.3944  159.8329 C.ar    1  UNL1        0.0319
     13 C         139.9973  145.7979  160.9778 C.ar    1  UNL1        0.0319
     14 C         140.0437  145.0313  162.2662 C.ar    1  UNL1        0.1400
     15 F         139.1625  145.4348  163.4112 F       1  UNL1       -0.2042
     16 C         141.7731  142.5925  167.4723 C.ar    1  UNL1       -0.0001
     17 C         140.7595  143.0059  168.4977 C.ar    1  UNL1       -0.0023
     18 C         141.1464  143.0869  169.9447 C.ar    1  UNL1       -0.0003
     19 C         142.5470  142.7544  170.3662 C.ar    1  UNL1       -0.0000
     20 C         143.5607  142.3409  169.3407 C.ar    1  UNL1       -0.0003
     21 C         143.1737  142.2600  167.8939 C.ar    1  UNL1       -0.0023
     22 C         139.8836  138.8912  165.1557 C.3     1  UNL1        0.1512
     23 C         139.4316  136.8199  165.2278 C.3     1  UNL1        0.0021
     24 C         138.7577  138.0700  165.7106 C.3     1  UNL1        0.0251
     25 C         138.0839  139.3201  166.1934 C.3     1  UNL1        0.0021
     26 C         137.6318  137.2488  166.2655 C.3     1  UNL1        0.0021
     27 N         140.4135  138.6062  163.7816 N.am    1  UNL1       -0.2640
     28 C         141.8517  138.2226  163.5971 C.2     1  UNL1        0.4020
     29 O         142.7602  138.1239  164.7866 O.2     1  UNL1       -0.2264
     30 H         139.8172  138.6710  163.0009 H       1  UNL1        0.1532
     31 O         142.3815  137.9376  162.2230 O.3     1  UNL1       -0.4319
     32 C         143.7875  138.3208  161.8669 C.3     1  UNL1        0.2417
     33 C         144.3313  139.6535  162.2888 C.3     1  UNL1        0.1849
     34 O         145.1361  139.7703  163.5492 O.3     1  UNL1       -0.3784
     35 H         144.5704  139.5767  164.3131 H       1  UNL1        0.2106
@<TRIPOS>BOND
     1    23    24    1
     2    24    25    1
     3    24    26    1
     4    24    22    1
     5    22    27    1
     6    27    28   am
     7    28    29    2
     8    28    31    1
     9    31    32    1
    10    32    33    1
    11    33    34    1
    12    22     1    1
    13     1     2    2
    14     1     3   am
    15     3     4    1
    16     4     5    1
    17     5     8    1
    18     8     9   ar
    19     9    10   ar
    20    10    11    1
    21    10    12   ar
    22    12    13   ar
    23    13    14   ar
    24    14    15    1
    25     5     6    2
    26     6     7    1
    27     7    16    1
    28    16    17   ar
    29    17    18   ar
    30    18    19   ar
    31    19    20   ar
    32    20    21   ar
    33     7     3    1
    34    21    16   ar
    35    14     8   ar
    36    27    30    1
    37    34    35    1
@<TRIPOS>MOLECULE
*****
 35 37 0 0 0
SMALL
GASTEIGER

@<TRIPOS>ATOM
      1 C         142.0280  140.9068  163.0074 C.2     1  UNL1        0.2443
      2 O         141.6177  140.8369  164.4485 O.2     1  UNL1       -0.2731
      3 N         141.2652  140.1346  161.9721 N.am    1  UNL1       -0.2682
      4 C         141.5563  140.1067  160.5009 C.3     1  UNL1        0.1206
      5 C         140.5484  139.2095  159.8458 C.2     1  UNL1       -0.0024
      6 C         139.6342  138.6830  160.9121 C.2     1  UNL1       -0.0047
      7 C         140.0772  139.2547  162.2262 C.3     1  UNL1        0.1203
      8 C         140.4686  138.8943  158.3814 C.ar    1  UNL1        0.0271
      9 C         139.3048  139.3834  157.5712 C.ar    1  UNL1        0.0316
     10 C         139.2251  139.0682  156.1069 C.ar    1  UNL1        0.1403
     11 F         138.0613  139.5573  155.2967 F       1  UNL1       -0.2042
     12 C         140.3091  138.2638  155.4528 C.ar    1  UNL1        0.0319
     13 C         141.4729  137.7747  156.2629 C.ar    1  UNL1        0.0319
     14 C         141.5526  138.0900  157.7272 C.ar    1  UNL1        0.1400
     15 F         142.7164  137.6009  158.5375 F       1  UNL1       -0.2042
     16 C         139.4434  138.9925  163.5603 C.ar    1  UNL1       -0.0001
     17 C         139.6368  137.6668  164.2349 C.ar    1  UNL1       -0.0023
     18 C         139.0030  137.4047  165.5690 C.ar    1  UNL1       -0.0003
     19 C         138.1760  138.4682  166.2283 C.ar    1  UNL1       -0.0000
     20 C         137.9827  139.7940  165.5537 C.ar    1  UNL1       -0.0003
     21 C         138.6164  140.0561  164.2197 C.ar    1  UNL1       -0.0023
     22 C         143.2011  141.7488  162.6015 C.3     1  UNL1        0.1512
     23 C         144.6512  140.2011  162.5630 C.3     1  UNL1        0.0021
     24 C         144.5384  141.5321  163.2454 C.3     1  UNL1        0.0251
     25 C         144.4256  142.8631  163.9278 C.3     1  UNL1        0.0021
     26 C         145.8757  141.3153  163.8893 C.3     1  UNL1        0.0021
     27 N         143.0369  142.8077  161.5518 N.am    1  UNL1       -0.2640
     28 C         141.9319  143.8151  161.6692 C.2     1  UNL1        0.4020
     29 O         140.9910  143.7638  162.8363 O.2     1  UNL1       -0.2264
     30 H         143.6544  142.8414  160.7858 H       1  UNL1        0.1532
     31 O         141.7677  144.8740  160.6195 O.3     1  UNL1       -0.4319
     32 C         140.4005  145.3928  160.2849 C.3     1  UNL1        0.2417
     33 C         139.7568  146.4283  161.1587 C.3     1  UNL1        0.1849
     34 O         139.9618  146.3890  162.6440 O.3     1  UNL1       -0.3784
     35 H         139.5475  145.5904  163.0066 H       1  UNL1        0.2106
@<TRIPOS>BOND
     1    23    24    1
     2    24    25    1
     3    24    26    1
     4    24    22    1
     5    22    27    1
     6    27    28   am
     7    28    29    2
     8    28    31    1
     9    31    32    1
    10    32    33    1
    11    33    34    1
    12    22     1    1
    13     1     2    2
    14     1     3   am
    15     3     4    1
    16     4     5    1
    17     5     8    1
    18     8     9   ar
    19     9    10   ar
    20    10    11    1
    21    10    12   ar
    22    12    13   ar
    23    13    14   ar
    24    14    15    1
    25     5     6    2
    26     6     7    1
    27     7    16    1
    28    16    17   ar
    29    17    18   ar
    30    18    19   ar
    31    19    20   ar
    32    20    21   ar
    33     7     3    1
    34    21    16   ar
    35    14     8   ar
    36    27    30    1
    37    34    35    1
