@<TRIPOS>MOLECULE
*****
 34 37 0 0 0
SMALL
GASTEIGER

@<TRIPOS>ATOM
      1 N         141.0815  145.0105  162.2385 N.3     1  UNL1       -0.2673
      2 C         141.7407  145.1378  163.5798 C.3     1  UNL1        0.1035
      3 C         142.9344  144.2925  163.9120 C.3     1  UNL1        0.1470
      4 C         144.1282  143.4470  164.2443 C.3     1  UNL1        0.1035
      5 N         144.6626  142.4743  163.2353 N.3     1  UNL1       -0.2682
      6 C         144.0032  142.3470  161.8939 C.3     1  UNL1        0.1035
      7 C         142.8095  143.1924  161.5617 C.3     1  UNL1        0.1470
      8 C         141.6159  144.0377  161.2295 C.3     1  UNL1        0.1035
      9 O         143.4688  143.3197  162.9030 O.3     1  UNL1       -0.3530
     10 C         139.8877  145.8559  161.9062 C.3     1  UNL1        0.0913
     11 C         138.5261  145.4543  162.3906 C.3     1  UNL1        0.1087
     12 N         138.1828  144.0022  162.5442 N.3     1  UNL1       -0.1780
     13 H         137.1654  143.9354  162.5142 H       1  UNL1        0.1488
     14 S         138.6303  143.2506  163.7627 S.O2    1  UNL1        0.0603
     15 O         139.1187  142.1307  162.8925 O.2     1  UNL1       -0.1530
     16 O         138.1419  144.3704  164.6329 O.2     1  UNL1       -0.1530
     17 C         139.9730  140.9956  167.4182 C.ar    1  UNL1        0.0685
     18 C         140.4001  142.4193  167.2162 C.ar    1  UNL1        0.0116
     19 C         139.9525  143.1710  165.9977 C.ar    1  UNL1        0.0206
     20 C         139.0779  142.4989  164.9812 C.ar    1  UNL1        0.1220
     21 C         138.6507  141.0752  165.1832 C.ar    1  UNL1        0.0206
     22 C         139.0983  140.3236  166.4016 C.ar    1  UNL1        0.0116
     23 N         140.8681  139.4923  169.8552 N.1     1  UNL1       -0.1908
     24 C         140.4205  140.2440  168.6367 C.1     1  UNL1        0.1004
     25 C         145.8562  141.6289  163.5675 C.3     1  UNL1        0.0769
     26 C         145.6731  140.3137  164.2652 C.3     1  UNL1        0.0437
     27 C         144.3638  139.5884  164.1667 C.ar    1  UNL1       -0.0184
     28 C         143.4482  139.5293  165.3533 C.ar    1  UNL1       -0.0018
     29 C         142.1388  138.8040  165.2549 C.ar    1  UNL1        0.0316
     30 C         141.7452  138.1378  163.9699 C.ar    1  UNL1        0.1674
     31 F         140.4359  137.4125  163.8714 F       1  UNL1       -0.2018
     32 C         142.6609  138.1970  162.7832 C.ar    1  UNL1        0.1671
     33 F         142.2673  137.5308  161.4982 F       1  UNL1       -0.2018
     34 C         143.9702  138.9223  162.8817 C.ar    1  UNL1        0.0277
@<TRIPOS>BOND
     1    23    24    3
     2    24    17    1
     3    17    18   ar
     4    18    19   ar
     5    19    20   ar
     6    20    14    1
     7    14    15    2
     8    14    16    2
     9    14    12    1
    10    12    11    1
    11    11    10    1
    12    10     1    1
    13     1     2    1
    14     2     3    1
    15     3     4    1
    16     4     5    1
    17     5    25    1
    18    25    26    1
    19    26    27    1
    20    27    28   ar
    21    28    29   ar
    22    29    30   ar
    23    30    31    1
    24    30    32   ar
    25    32    33    1
    26    32    34   ar
    27     5     6    1
    28     6     7    1
    29     7     8    1
    30     7     9    1
    31    20    21   ar
    32    21    22   ar
    33    22    17   ar
    34     8     1    1
    35     9     3    1
    36    34    27   ar
    37    12    13    1
@<TRIPOS>MOLECULE
*****
 34 37 0 0 0
SMALL
GASTEIGER

@<TRIPOS>ATOM
      1 N         138.2081  140.5064  161.4187 N.3     1  UNL1       -0.2673
      2 C         139.2057  141.0973  160.4670 C.3     1  UNL1        0.1035
      3 C         139.9463  142.3479  160.8378 C.3     1  UNL1        0.1470
      4 C         140.6870  143.5985  161.2085 C.3     1  UNL1        0.1035
      5 N         140.4299  144.2583  162.5308 N.3     1  UNL1       -0.2682
      6 C         139.4323  143.6674  163.4825 C.3     1  UNL1        0.1035
      7 C         138.6917  142.4168  163.1118 C.3     1  UNL1        0.1470
      8 C         137.9511  141.1662  162.7410 C.3     1  UNL1        0.1035
      9 O         139.6893  143.0076  162.1601 O.3     1  UNL1       -0.3530
     10 C         137.4675  139.2557  161.0480 C.3     1  UNL1        0.0913
     11 C         137.8395  137.9481  161.6816 C.3     1  UNL1        0.1087
     12 N         139.2807  137.6245  161.9431 N.3     1  UNL1       -0.1780
     13 H         139.3648  136.6084  161.9115 H       1  UNL1        0.1488
     14 S         139.9308  138.0733  163.2182 S.O2    1  UNL1        0.0603
     15 O         138.8126  137.4568  164.0053 O.2     1  UNL1       -0.1530
     16 O         141.0490  138.6898  162.4312 O.2     1  UNL1       -0.1530
     17 C         141.8810  139.4197  167.0436 C.ar    1  UNL1        0.0685
     18 C         140.4681  139.8216  166.7403 C.ar    1  UNL1        0.0116
     19 C         139.8180  139.3728  165.4651 C.ar    1  UNL1        0.0206
     20 C         140.5809  138.5221  164.4933 C.ar    1  UNL1        0.1220
     21 C         141.9938  138.1201  164.7967 C.ar    1  UNL1        0.0206
     22 C         142.6439  138.5690  166.0719 C.ar    1  UNL1        0.0116
     23 N         143.1811  140.3173  169.5939 N.1     1  UNL1       -0.1908
     24 C         142.5311  139.8685  168.3187 C.1     1  UNL1        0.1004
     25 C         141.1705  145.5089  162.9015 C.3     1  UNL1        0.0769
     26 C         142.3499  145.4362  163.8255 C.3     1  UNL1        0.0437
     27 C         143.0972  144.1457  163.9877 C.ar    1  UNL1       -0.0184
     28 C         142.8969  143.3127  165.2189 C.ar    1  UNL1       -0.0018
     29 C         143.6442  142.0222  165.3811 C.ar    1  UNL1        0.0316
     30 C         144.5917  141.5648  164.3120 C.ar    1  UNL1        0.1674
     31 F         145.3390  140.2743  164.4741 F       1  UNL1       -0.2018
     32 C         144.7920  142.3979  163.0807 C.ar    1  UNL1        0.1671
     33 F         145.7395  141.9404  162.0116 F       1  UNL1       -0.2018
     34 C         144.0447  143.6883  162.9186 C.ar    1  UNL1        0.0277
@<TRIPOS>BOND
     1    23    24    3
     2    24    17    1
     3    17    18   ar
     4    18    19   ar
     5    19    20   ar
     6    20    14    1
     7    14    15    2
     8    14    16    2
     9    14    12    1
    10    12    11    1
    11    11    10    1
    12    10     1    1
    13     1     2    1
    14     2     3    1
    15     3     4    1
    16     4     5    1
    17     5    25    1
    18    25    26    1
    19    26    27    1
    20    27    28   ar
    21    28    29   ar
    22    29    30   ar
    23    30    31    1
    24    30    32   ar
    25    32    33    1
    26    32    34   ar
    27     5     6    1
    28     6     7    1
    29     7     8    1
    30     7     9    1
    31    20    21   ar
    32    21    22   ar
    33    22    17   ar
    34     8     1    1
    35     9     3    1
    36    34    27   ar
    37    12    13    1
@<TRIPOS>MOLECULE
*****
 34 37 0 0 0
SMALL
GASTEIGER

@<TRIPOS>ATOM
      1 N         140.9277  140.5195  159.0422 N.3     1  UNL1       -0.2673
      2 C         141.0748  141.9980  158.8368 C.3     1  UNL1        0.1035
      3 C         140.4450  142.9559  159.8041 C.3     1  UNL1        0.1470
      4 C         139.8151  143.9139  160.7715 C.3     1  UNL1        0.1035
      5 N         139.0382  143.3932  161.9442 N.3     1  UNL1       -0.2682
      6 C         138.8912  141.9146  162.1496 C.3     1  UNL1        0.1035
      7 C         139.5210  140.9567  161.1823 C.3     1  UNL1        0.1470
      8 C         140.1508  139.9988  160.2150 C.3     1  UNL1        0.1035
      9 O         139.6681  142.4353  160.9769 O.3     1  UNL1       -0.3530
     10 C         141.5576  139.5615  158.0749 C.3     1  UNL1        0.0913
     11 C         142.5836  138.5779  158.5541 C.3     1  UNL1        0.1087
     12 N         143.7300  139.0432  159.4023 N.3     1  UNL1       -0.1780
     13 H         144.5292  138.4554  159.1652 H       1  UNL1        0.1488
     14 S         143.6107  139.0294  160.8974 S.O2    1  UNL1        0.0603
     15 O         143.5021  137.5336  160.8750 O.2     1  UNL1       -0.1530
     16 O         143.7194  140.5253  160.9198 O.2     1  UNL1       -0.1530
     17 C         143.2528  138.9882  165.3830 C.ar    1  UNL1        0.0685
     18 C         144.4031  139.6945  164.7288 C.ar    1  UNL1        0.0116
     19 C         144.5224  139.7083  163.2336 C.ar    1  UNL1        0.0206
     20 C         143.4915  139.0157  162.3926 C.ar    1  UNL1        0.1220
     21 C         142.3411  138.3093  163.0468 C.ar    1  UNL1        0.0206
     22 C         142.2218  138.2956  164.5419 C.ar    1  UNL1        0.0116
     23 N         143.0143  138.9608  168.3733 N.1     1  UNL1       -0.1908
     24 C         143.1335  138.9744  166.8781 C.1     1  UNL1        0.1004
     25 C         138.4084  144.3511  162.9115 C.3     1  UNL1        0.0769
     26 C         139.1437  144.7525  164.1558 C.3     1  UNL1        0.0437
     27 C         140.5793  144.3580  164.3389 C.ar    1  UNL1       -0.0184
     28 C         140.9255  143.1385  165.1406 C.ar    1  UNL1       -0.0018
     29 C         142.3611  142.7440  165.3237 C.ar    1  UNL1        0.0316
     30 C         143.4504  143.5690  164.7051 C.ar    1  UNL1        0.1674
     31 F         144.8859  143.1745  164.8882 F       1  UNL1       -0.2018
     32 C         143.1041  144.7886  163.9034 C.ar    1  UNL1        0.1671
     33 F         144.1934  145.6137  163.2847 F       1  UNL1       -0.2018
     34 C         141.6686  145.1831  163.7203 C.ar    1  UNL1        0.0277
@<TRIPOS>BOND
     1    23    24    3
     2    24    17    1
     3    17    18   ar
     4    18    19   ar
     5    19    20   ar
     6    20    14    1
     7    14    15    2
     8    14    16    2
     9    14    12    1
    10    12    11    1
    11    11    10    1
    12    10     1    1
    13     1     2    1
    14     2     3    1
    15     3     4    1
    16     4     5    1
    17     5    25    1
    18    25    26    1
    19    26    27    1
    20    27    28   ar
    21    28    29   ar
    22    29    30   ar
    23    30    31    1
    24    30    32   ar
    25    32    33    1
    26    32    34   ar
    27     5     6    1
    28     6     7    1
    29     7     8    1
    30     7     9    1
    31    20    21   ar
    32    21    22   ar
    33    22    17   ar
    34     8     1    1
    35     9     3    1
    36    34    27   ar
    37    12    13    1
@<TRIPOS>MOLECULE
*****
 34 37 0 0 0
SMALL
GASTEIGER

@<TRIPOS>ATOM
      1 N         139.5723  142.8210  160.6328 N.3     1  UNL1       -0.2673
      2 C         139.2038  143.6499  161.8274 C.3     1  UNL1        0.1035
      3 C         140.2787  144.2331  162.6960 C.3     1  UNL1        0.1470
      4 C         141.3536  144.8163  163.5646 C.3     1  UNL1        0.1035
      5 N         142.7969  144.5706  163.2386 N.3     1  UNL1       -0.2682
      6 C         143.1654  143.7416  162.0440 C.3     1  UNL1        0.1035
      7 C         142.0906  143.1584  161.1754 C.3     1  UNL1        0.1470
      8 C         141.0157  142.5752  160.3068 C.3     1  UNL1        0.1035
      9 O         141.7220  143.9873  162.3700 O.3     1  UNL1       -0.3530
     10 C         138.4974  142.2377  159.7642 C.3     1  UNL1        0.0913
     11 C         138.1450  140.7844  159.8809 C.3     1  UNL1        0.1087
     12 N         137.2415  140.3179  160.9837 N.3     1  UNL1       -0.1780
     13 H         136.4455  140.9555  161.0018 H       1  UNL1        0.1488
     14 S         137.7576  140.2297  162.3894 S.O2    1  UNL1        0.0603
     15 O         138.6589  139.1001  161.9876 O.2     1  UNL1       -0.1530
     16 O         136.8563  141.3594  162.7912 O.2     1  UNL1       -0.1530
     17 C         139.3059  139.9652  166.6063 C.ar    1  UNL1        0.0685
     18 C         139.1243  141.3049  165.9568 C.ar    1  UNL1        0.0116
     19 C         138.6082  141.3932  164.5511 C.ar    1  UNL1        0.0206
     20 C         138.2737  140.1416  163.7950 C.ar    1  UNL1        0.1220
     21 C         138.4553  138.8017  164.4446 C.ar    1  UNL1        0.0206
     22 C         138.9714  138.7136  165.8503 C.ar    1  UNL1        0.0116
     23 N         140.3381  139.7888  169.4176 N.1     1  UNL1       -0.1908
     24 C         139.8220  139.8770  168.0119 C.1     1  UNL1        0.1004
     25 C         143.8718  145.1538  164.1072 C.3     1  UNL1        0.0769
     26 C         144.5503  144.2993  165.1366 C.3     1  UNL1        0.0437
     27 C         144.1918  142.8481  165.2612 C.ar    1  UNL1       -0.0184
     28 C         143.1443  142.4161  166.2440 C.ar    1  UNL1       -0.0018
     29 C         142.7857  140.9648  166.3686 C.ar    1  UNL1        0.0316
     30 C         143.4748  139.9457  165.5103 C.ar    1  UNL1        0.1674
     31 F         143.1163  138.4946  165.6349 F       1  UNL1       -0.2018
     32 C         144.5224  140.3778  164.5275 C.ar    1  UNL1        0.1671
     33 F         145.2114  139.3587  163.6692 F       1  UNL1       -0.2018
     34 C         144.8809  141.8290  164.4029 C.ar    1  UNL1        0.0277
@<TRIPOS>BOND
     1    23    24    3
     2    24    17    1
     3    17    18   ar
     4    18    19   ar
     5    19    20   ar
     6    20    14    1
     7    14    15    2
     8    14    16    2
     9    14    12    1
    10    12    11    1
    11    11    10    1
    12    10     1    1
    13     1     2    1
    14     2     3    1
    15     3     4    1
    16     4     5    1
    17     5    25    1
    18    25    26    1
    19    26    27    1
    20    27    28   ar
    21    28    29   ar
    22    29    30   ar
    23    30    31    1
    24    30    32   ar
    25    32    33    1
    26    32    34   ar
    27     5     6    1
    28     6     7    1
    29     7     8    1
    30     7     9    1
    31    20    21   ar
    32    21    22   ar
    33    22    17   ar
    34     8     1    1
    35     9     3    1
    36    34    27   ar
    37    12    13    1
@<TRIPOS>MOLECULE
*****
 34 37 0 0 0
SMALL
GASTEIGER

@<TRIPOS>ATOM
      1 N         142.9012  139.0607  159.6410 N.3     1  UNL1       -0.2673
      2 C         143.3635  140.4605  159.3641 C.3     1  UNL1        0.1035
      3 C         144.0313  141.2574  160.4453 C.3     1  UNL1        0.1470
      4 C         144.6992  142.0544  161.5264 C.3     1  UNL1        0.1035
      5 N         144.9048  141.4514  162.8844 N.3     1  UNL1       -0.2682
      6 C         144.4425  140.0515  163.1613 C.3     1  UNL1        0.1035
      7 C         143.7747  139.2546  162.0801 C.3     1  UNL1        0.1470
      8 C         143.1068  138.4577  160.9990 C.3     1  UNL1        0.1035
      9 O         144.2369  140.6544  161.8033 O.3     1  UNL1       -0.3530
     10 C         142.2333  138.2637  158.5598 C.3     1  UNL1        0.0913
     11 C         140.7431  138.3198  158.3984 C.3     1  UNL1        0.1087
     12 N         139.9568  139.4084  159.0668 N.3     1  UNL1       -0.1780
     13 H         140.5006  140.2660  158.9707 H       1  UNL1        0.1488
     14 S         139.5913  139.2878  160.5165 S.O2    1  UNL1        0.0603
     15 O         140.0976  140.6785  160.7600 O.2     1  UNL1       -0.1530
     16 O         139.0849  137.8970  160.2731 O.2     1  UNL1       -0.1530
     17 C         138.4945  138.9258  164.8658 C.ar    1  UNL1        0.0685
     18 C         139.2118  137.8027  164.1772 C.ar    1  UNL1        0.0116
     19 C         139.5774  137.9233  162.7274 C.ar    1  UNL1        0.0206
     20 C         139.2257  139.1671  161.9663 C.ar    1  UNL1        0.1220
     21 C         138.5084  140.2902  162.6549 C.ar    1  UNL1        0.0206
     22 C         138.1428  140.1696  164.1046 C.ar    1  UNL1        0.0116
     23 N         137.7634  138.6845  167.7653 N.1     1  UNL1       -0.1908
     24 C         138.1290  138.8051  166.3155 C.1     1  UNL1        0.1004
     25 C         145.5726  142.2483  163.9656 C.3     1  UNL1        0.0769
     26 C         144.7547  142.8406  165.0748 C.3     1  UNL1        0.0437
     27 C         143.4201  143.4565  164.7761 C.ar    1  UNL1       -0.0184
     28 C         143.3396  144.7135  163.9616 C.ar    1  UNL1       -0.0018
     29 C         142.0049  145.3295  163.6629 C.ar    1  UNL1        0.0316
     30 C         140.7507  144.6884  164.1786 C.ar    1  UNL1        0.1674
     31 F         139.4161  145.3043  163.8799 F       1  UNL1       -0.2018
     32 C         140.8312  143.4313  164.9931 C.ar    1  UNL1        0.1671
     33 F         139.5770  142.7903  165.5089 F       1  UNL1       -0.2018
     34 C         142.1659  142.8154  165.2919 C.ar    1  UNL1        0.0277
@<TRIPOS>BOND
     1    23    24    3
     2    24    17    1
     3    17    18   ar
     4    18    19   ar
     5    19    20   ar
     6    20    14    1
     7    14    15    2
     8    14    16    2
     9    14    12    1
    10    12    11    1
    11    11    10    1
    12    10     1    1
    13     1     2    1
    14     2     3    1
    15     3     4    1
    16     4     5    1
    17     5    25    1
    18    25    26    1
    19    26    27    1
    20    27    28   ar
    21    28    29   ar
    22    29    30   ar
    23    30    31    1
    24    30    32   ar
    25    32    33    1
    26    32    34   ar
    27     5     6    1
    28     6     7    1
    29     7     8    1
    30     7     9    1
    31    20    21   ar
    32    21    22   ar
    33    22    17   ar
    34     8     1    1
    35     9     3    1
    36    34    27   ar
    37    12    13    1
@<TRIPOS>MOLECULE
*****
 34 37 0 0 0
SMALL
GASTEIGER

@<TRIPOS>ATOM
      1 N         141.4061  140.9542  159.1895 N.3     1  UNL1       -0.2673
      2 C         142.4170  141.6802  160.0266 C.3     1  UNL1        0.1035
      3 C         141.9672  142.7072  161.0230 C.3     1  UNL1        0.1470
      4 C         141.5173  143.7342  162.0195 C.3     1  UNL1        0.1035
      5 N         140.0565  144.0352  162.1788 N.3     1  UNL1       -0.2682
      6 C         139.0455  143.3092  161.3416 C.3     1  UNL1        0.1035
      7 C         139.4954  142.2822  160.3452 C.3     1  UNL1        0.1470
      8 C         139.9452  141.2552  159.3488 C.3     1  UNL1        0.1035
      9 O         140.5064  143.0082  161.1823 O.3     1  UNL1       -0.3530
     10 C         141.8559  139.9271  158.1930 C.3     1  UNL1        0.0913
     11 C         143.0912  139.1178  158.4558 C.3     1  UNL1        0.1087
     12 N         143.0285  137.9279  159.3671 N.3     1  UNL1       -0.1780
     13 H         142.1722  137.4244  159.1354 H       1  UNL1        0.1488
     14 S         143.0279  138.1216  160.8545 S.O2    1  UNL1        0.0603
     15 O         144.4429  138.6154  160.7907 O.2     1  UNL1       -0.1530
     16 O         141.6130  137.6278  160.9183 O.2     1  UNL1       -0.1530
     17 C         143.0264  138.7027  165.3168 C.ar    1  UNL1        0.0685
     18 C         141.8910  137.9804  164.6542 C.ar    1  UNL1        0.0116
     19 C         141.8915  137.7867  163.1667 C.ar    1  UNL1        0.0206
     20 C         143.0274  138.3153  162.3419 C.ar    1  UNL1        0.1220
     21 C         144.1629  139.0376  163.0046 C.ar    1  UNL1        0.0206
     22 C         144.1623  139.2312  164.4921 C.ar    1  UNL1        0.0116
     23 N         143.0254  139.0901  168.2917 N.1     1  UNL1       -0.1908
     24 C         143.0259  138.8963  166.8042 C.1     1  UNL1        0.1004
     25 C         139.6066  145.0622  163.1752 C.3     1  UNL1        0.0769
     26 C         138.8081  144.6445  164.3743 C.3     1  UNL1        0.0437
     27 C         139.0981  143.3372  165.0503 C.ar    1  UNL1       -0.0184
     28 C         140.1933  143.2477  166.0713 C.ar    1  UNL1       -0.0018
     29 C         140.4834  141.9404  166.7473 C.ar    1  UNL1        0.0316
     30 C         139.6783  140.7227  166.4023 C.ar    1  UNL1        0.1674
     31 F         139.9684  139.4155  167.0783 F       1  UNL1       -0.2018
     32 C         138.5831  140.8123  165.3812 C.ar    1  UNL1        0.1671
     33 F         137.7780  139.5947  165.0361 F       1  UNL1       -0.2018
     34 C         138.2930  142.1196  164.7052 C.ar    1  UNL1        0.0277
@<TRIPOS>BOND
     1    23    24    3
     2    24    17    1
     3    17    18   ar
     4    18    19   ar
     5    19    20   ar
     6    20    14    1
     7    14    15    2
     8    14    16    2
     9    14    12    1
    10    12    11    1
    11    11    10    1
    12    10     1    1
    13     1     2    1
    14     2     3    1
    15     3     4    1
    16     4     5    1
    17     5    25    1
    18    25    26    1
    19    26    27    1
    20    27    28   ar
    21    28    29   ar
    22    29    30   ar
    23    30    31    1
    24    30    32   ar
    25    32    33    1
    26    32    34   ar
    27     5     6    1
    28     6     7    1
    29     7     8    1
    30     7     9    1
    31    20    21   ar
    32    21    22   ar
    33    22    17   ar
    34     8     1    1
    35     9     3    1
    36    34    27   ar
    37    12    13    1
@<TRIPOS>MOLECULE
*****
 34 37 0 0 0
SMALL
GASTEIGER

@<TRIPOS>ATOM
      1 N         140.8418  144.1063  160.5714 N.3     1  UNL1       -0.2673
      2 C         142.2987  143.8199  160.3586 C.3     1  UNL1        0.1035
      3 C         142.7519  142.4226  160.0552 C.3     1  UNL1        0.1470
      4 C         143.2051  141.0252  159.7517 C.3     1  UNL1        0.1035
      5 N         142.2013  139.9142  159.6611 N.3     1  UNL1       -0.2682
      6 C         140.7443  140.2007  159.8739 C.3     1  UNL1        0.1035
      7 C         140.2912  141.5980  160.1773 C.3     1  UNL1        0.1470
      8 C         139.8380  142.9953  160.4807 C.3     1  UNL1        0.1035
      9 O         141.7481  141.3116  159.9645 O.3     1  UNL1       -0.3530
     10 C         140.3886  145.5036  160.8748 C.3     1  UNL1        0.0913
     11 C         139.9287  145.8593  162.2575 C.3     1  UNL1        0.1087
     12 N         140.6033  145.2520  163.4518 N.3     1  UNL1       -0.1780
     13 H         141.5701  145.0697  163.1827 H       1  UNL1        0.1488
     14 S         140.0728  143.9818  164.0476 S.O2    1  UNL1        0.0603
     15 O         138.7356  144.6324  164.2440 O.2     1  UNL1       -0.1530
     16 O         141.4099  143.3312  163.8512 O.2     1  UNL1       -0.1530
     17 C         138.4811  140.1711  165.8351 C.ar    1  UNL1        0.0685
     18 C         137.9471  140.6643  164.5230 C.ar    1  UNL1        0.0116
     19 C         138.4776  141.9346  163.9271 C.ar    1  UNL1        0.0206
     20 C         139.5422  142.7116  164.6434 C.ar    1  UNL1        0.1220
     21 C         140.0762  142.2183  165.9555 C.ar    1  UNL1        0.0206
     22 C         139.5456  140.9481  166.5513 C.ar    1  UNL1        0.0116
     23 N         137.4200  137.6306  167.0268 N.1     1  UNL1       -0.1908
     24 C         137.9505  138.9009  166.4309 C.1     1  UNL1        0.1004
     25 C         142.6545  138.5169  159.3577 C.3     1  UNL1        0.0769
     26 C         143.0273  137.5898  160.4764 C.3     1  UNL1        0.0437
     27 C         142.8507  138.0244  161.9011 C.ar    1  UNL1       -0.0184
     28 C         141.5526  137.7684  162.6078 C.ar    1  UNL1       -0.0018
     29 C         141.3759  138.2030  164.0326 C.ar    1  UNL1        0.0316
     30 C         142.4973  138.8936  164.7506 C.ar    1  UNL1        0.1674
     31 F         142.3206  139.3283  166.1753 F       1  UNL1       -0.2018
     32 C         143.7954  139.1497  164.0438 C.ar    1  UNL1        0.1671
     33 F         144.9167  139.8404  164.7618 F       1  UNL1       -0.2018
     34 C         143.9720  138.7151  162.6191 C.ar    1  UNL1        0.0277
@<TRIPOS>BOND
     1    23    24    3
     2    24    17    1
     3    17    18   ar
     4    18    19   ar
     5    19    20   ar
     6    20    14    1
     7    14    15    2
     8    14    16    2
     9    14    12    1
    10    12    11    1
    11    11    10    1
    12    10     1    1
    13     1     2    1
    14     2     3    1
    15     3     4    1
    16     4     5    1
    17     5    25    1
    18    25    26    1
    19    26    27    1
    20    27    28   ar
    21    28    29   ar
    22    29    30   ar
    23    30    31    1
    24    30    32   ar
    25    32    33    1
    26    32    34   ar
    27     5     6    1
    28     6     7    1
    29     7     8    1
    30     7     9    1
    31    20    21   ar
    32    21    22   ar
    33    22    17   ar
    34     8     1    1
    35     9     3    1
    36    34    27   ar
    37    12    13    1
@<TRIPOS>MOLECULE
*****
 34 37 0 0 0
SMALL
GASTEIGER

@<TRIPOS>ATOM
      1 N         141.7440  139.8590  159.5053 N.3     1  UNL1       -0.2673
      2 C         142.8157  140.8408  159.8761 C.3     1  UNL1        0.1035
      3 C         142.4630  142.2772  160.1259 C.3     1  UNL1        0.1470
      4 C         142.1103  143.7136  160.3757 C.3     1  UNL1        0.1035
      5 N         140.6860  144.1682  160.2546 N.3     1  UNL1       -0.2682
      6 C         139.6143  143.1863  159.8838 C.3     1  UNL1        0.1035
      7 C         139.9670  141.7499  159.6340 C.3     1  UNL1        0.1470
      8 C         140.3197  140.3135  159.3843 C.3     1  UNL1        0.1035
      9 O         141.0387  142.7317  160.0048 O.3     1  UNL1       -0.3530
     10 C         142.0967  138.4225  159.2555 C.3     1  UNL1        0.0913
     11 C         142.8620  137.6479  160.2870 C.3     1  UNL1        0.1087
     12 N         142.2085  137.2796  161.5860 N.3     1  UNL1       -0.1780
     13 H         141.2082  137.2045  161.4014 H       1  UNL1        0.1488
     14 S         142.3624  138.1713  162.7823 S.O2    1  UNL1        0.0603
     15 O         143.8053  138.3886  162.4347 O.2     1  UNL1       -0.1530
     16 O         140.9195  137.9540  163.1298 O.2     1  UNL1       -0.1530
     17 C         142.8240  140.8465  166.3711 C.ar    1  UNL1        0.0685
     18 C         141.9442  139.6342  166.4477 C.ar    1  UNL1        0.0116
     19 C         141.7903  138.7424  165.2514 C.ar    1  UNL1        0.0206
     20 C         142.5163  139.0630  163.9785 C.ar    1  UNL1        0.1220
     21 C         143.3962  140.2755  163.9020 C.ar    1  UNL1        0.0206
     22 C         143.5500  141.1672  165.0983 C.ar    1  UNL1        0.0116
     23 N         143.1317  142.6300  168.7637 N.1     1  UNL1       -0.1908
     24 C         142.9779  141.7383  167.5674 C.1     1  UNL1        0.1004
     25 C         140.3333  145.6045  160.5044 C.3     1  UNL1        0.0769
     26 C         139.7993  146.0241  161.8419 C.3     1  UNL1        0.0437
     27 C         139.7725  145.0463  162.9791 C.ar    1  UNL1       -0.0184
     28 C         141.0158  144.7915  163.7785 C.ar    1  UNL1       -0.0018
     29 C         140.9891  143.8136  164.9157 C.ar    1  UNL1        0.0316
     30 C         139.7189  143.0906  165.2534 C.ar    1  UNL1        0.1674
     31 F         139.6922  142.1128  166.3906 F       1  UNL1       -0.2018
     32 C         138.4756  143.3455  164.4539 C.ar    1  UNL1        0.1671
     33 F         137.2054  142.6225  164.7916 F       1  UNL1       -0.2018
     34 C         138.5024  144.3233  163.3168 C.ar    1  UNL1        0.0277
@<TRIPOS>BOND
     1    23    24    3
     2    24    17    1
     3    17    18   ar
     4    18    19   ar
     5    19    20   ar
     6    20    14    1
     7    14    15    2
     8    14    16    2
     9    14    12    1
    10    12    11    1
    11    11    10    1
    12    10     1    1
    13     1     2    1
    14     2     3    1
    15     3     4    1
    16     4     5    1
    17     5    25    1
    18    25    26    1
    19    26    27    1
    20    27    28   ar
    21    28    29   ar
    22    29    30   ar
    23    30    31    1
    24    30    32   ar
    25    32    33    1
    26    32    34   ar
    27     5     6    1
    28     6     7    1
    29     7     8    1
    30     7     9    1
    31    20    21   ar
    32    21    22   ar
    33    22    17   ar
    34     8     1    1
    35     9     3    1
    36    34    27   ar
    37    12    13    1
@<TRIPOS>MOLECULE
*****
 34 37 0 0 0
SMALL
GASTEIGER

@<TRIPOS>ATOM
      1 N         139.9906  142.0420  159.3346 N.3     1  UNL1       -0.2673
      2 C         141.4604  141.7597  159.2364 C.3     1  UNL1        0.1035
      3 C         142.4190  142.4418  160.1669 C.3     1  UNL1        0.1470
      4 C         143.3776  143.1239  161.0974 C.3     1  UNL1        0.1035
      5 N         142.8662  144.0884  162.1262 N.3     1  UNL1       -0.2682
      6 C         141.3963  144.3708  162.2243 C.3     1  UNL1        0.1035
      7 C         140.4377  143.6887  161.2938 C.3     1  UNL1        0.1470
      8 C         139.4792  143.0065  160.3633 C.3     1  UNL1        0.1035
      9 O         141.9076  143.4063  161.1956 O.3     1  UNL1       -0.3530
     10 C         139.0319  141.3599  158.4040 C.3     1  UNL1        0.0913
     11 C         138.1139  140.2931  158.9227 C.3     1  UNL1        0.1087
     12 N         138.6687  139.1463  159.7148 N.3     1  UNL1       -0.1780
     13 H         138.1237  138.3223  159.4610 H       1  UNL1        0.1488
     14 S         138.6866  139.2089  161.2133 S.O2    1  UNL1        0.0603
     15 O         137.2196  139.5218  161.2178 O.2     1  UNL1       -0.1530
     16 O         140.1536  138.8961  161.2088 O.2     1  UNL1       -0.1530
     17 C         138.7404  139.3968  165.7091 C.ar    1  UNL1        0.0685
     18 C         138.2649  140.5770  164.9148 C.ar    1  UNL1        0.0116
     19 C         138.2469  140.5144  163.4161 C.ar    1  UNL1        0.0206
     20 C         138.7045  139.2716  162.7119 C.ar    1  UNL1        0.1220
     21 C         139.1801  138.0913  163.5063 C.ar    1  UNL1        0.0206
     22 C         139.1981  138.1540  165.0048 C.ar    1  UNL1        0.0116
     23 N         138.7764  139.5220  168.7063 N.1     1  UNL1       -0.1908
     24 C         138.7584  139.4594  167.2076 C.1     1  UNL1        0.1004
     25 C         143.8247  144.7705  163.0567 C.3     1  UNL1        0.0769
     26 C         144.0465  144.2257  164.4366 C.3     1  UNL1        0.0437
     27 C         143.6830  142.8045  164.7492 C.ar    1  UNL1       -0.0184
     28 C         142.3861  142.4959  165.4368 C.ar    1  UNL1       -0.0018
     29 C         142.0226  141.0745  165.7494 C.ar    1  UNL1        0.0316
     30 C         142.9560  139.9618  165.3745 C.ar    1  UNL1        0.1674
     31 F         142.5925  138.5405  165.6871 F       1  UNL1       -0.2018
     32 C         144.2530  140.2705  164.6869 C.ar    1  UNL1        0.1671
     33 F         145.1864  139.1577  164.3119 F       1  UNL1       -0.2018
     34 C         144.6164  141.6917  164.3742 C.ar    1  UNL1        0.0277
@<TRIPOS>BOND
     1    23    24    3
     2    24    17    1
     3    17    18   ar
     4    18    19   ar
     5    19    20   ar
     6    20    14    1
     7    14    15    2
     8    14    16    2
     9    14    12    1
    10    12    11    1
    11    11    10    1
    12    10     1    1
    13     1     2    1
    14     2     3    1
    15     3     4    1
    16     4     5    1
    17     5    25    1
    18    25    26    1
    19    26    27    1
    20    27    28   ar
    21    28    29   ar
    22    29    30   ar
    23    30    31    1
    24    30    32   ar
    25    32    33    1
    26    32    34   ar
    27     5     6    1
    28     6     7    1
    29     7     8    1
    30     7     9    1
    31    20    21   ar
    32    21    22   ar
    33    22    17   ar
    34     8     1    1
    35     9     3    1
    36    34    27   ar
    37    12    13    1
