@<TRIPOS>MOLECULE
*****
 19 20 0 0 0
SMALL
GASTEIGER

@<TRIPOS>ATOM
      1 C         141.6187  139.9735  167.0017 C.ar    1  UNL1        0.1374
      2 C         142.7784  140.3457  167.8772 C.ar    1  UNL1        0.0685
      3 C         142.5558  140.6445  169.3302 C.ar    1  UNL1        0.1704
      4 F         143.7156  141.0167  170.2056 F       1  UNL1       -0.2017
      5 C         141.1734  140.5710  169.9077 C.ar    1  UNL1        0.1673
      6 F         140.9507  140.8698  171.3607 F       1  UNL1       -0.2018
      7 C         140.0137  140.1988  169.0322 C.ar    1  UNL1        0.0307
      8 C         140.2363  139.9001  167.5792 C.ar    1  UNL1        0.0139
      9 C         139.0765  139.5278  166.7038 C.3     1  UNL1        0.0268
     10 C         137.7975  138.7730  166.4933 C.3     1  UNL1        0.0062
     11 C         138.3468  139.6380  165.3979 C.3     1  UNL1        0.0200
     12 C         138.2426  140.2011  164.0115 C.3     1  UNL1        0.0654
     13 N         137.0465  141.0180  163.6217 N.3     1  UNL1       -0.3211
     14 H         136.2146  140.4278  163.6292 H       1  UNL1        0.1189
     15 H         137.1851  141.3984  162.6855 H       1  UNL1        0.1189
     16 O         141.8414  139.6748  165.5487 O.3     1  UNL1       -0.4709
     17 C         142.2481  138.2960  165.1203 C.3     1  UNL1        0.2318
     18 C         140.7788  137.3023  163.2219 C.2     1  UNL1       -0.0011
     19 C         141.2095  137.3171  164.6587 C.2     1  UNL1        0.0207
@<TRIPOS>BOND
     1    18    19    2
     2    19    17    1
     3    17    16    1
     4    16     1    1
     5     1     2   ar
     6     2     3   ar
     7     3     4    1
     8     3     5   ar
     9     5     6    1
    10     5     7   ar
    11     7     8   ar
    12     8     9    1
    13     9    10    1
    14    10    11    1
    15    11    12    1
    16    12    13    1
    17     8     1   ar
    18    11     9    1
    19    13    14    1
    20    13    15    1
@<TRIPOS>MOLECULE
*****
 19 20 0 0 0
SMALL
GASTEIGER

@<TRIPOS>ATOM
      1 C         140.2200  141.2269  165.6844 C.ar    1  UNL1        0.1374
      2 C         139.7142  140.3321  164.5919 C.ar    1  UNL1        0.0685
      3 C         138.8585  139.1472  164.9289 C.ar    1  UNL1        0.1704
      4 F         138.3527  138.2523  163.8364 F       1  UNL1       -0.2017
      5 C         138.5084  138.8571  166.3584 C.ar    1  UNL1        0.1673
      6 F         137.6527  137.6721  166.6954 F       1  UNL1       -0.2018
      7 C         139.0142  139.7519  167.4508 C.ar    1  UNL1        0.0307
      8 C         139.8700  140.9368  167.1138 C.ar    1  UNL1        0.0139
      9 C         140.3757  141.8317  168.2063 C.3     1  UNL1        0.0268
     10 C         140.4475  143.1858  168.8476 C.3     1  UNL1        0.0062
     11 C         141.1799  142.0275  169.4572 C.3     1  UNL1        0.0200
     12 C         142.0672  141.4717  170.5314 C.3     1  UNL1        0.0654
     13 N         142.0497  142.0744  171.9049 N.3     1  UNL1       -0.3211
     14 H         142.4098  143.0278  171.8624 H       1  UNL1        0.1189
     15 H         142.6346  141.5175  172.5280 H       1  UNL1        0.1189
     16 O         141.0758  142.4119  165.3473 O.3     1  UNL1       -0.4709
     17 C         140.4542  143.6416  164.7545 C.3     1  UNL1        0.2318
     18 C         137.8862  144.0132  164.6237 C.2     1  UNL1       -0.0011
     19 C         139.1910  144.2001  165.3397 C.2     1  UNL1        0.0207
@<TRIPOS>BOND
     1    18    19    2
     2    19    17    1
     3    17    16    1
     4    16     1    1
     5     1     2   ar
     6     2     3   ar
     7     3     4    1
     8     3     5   ar
     9     5     6    1
    10     5     7   ar
    11     7     8   ar
    12     8     9    1
    13     9    10    1
    14    10    11    1
    15    11    12    1
    16    12    13    1
    17     8     1   ar
    18    11     9    1
    19    13    14    1
    20    13    15    1
@<TRIPOS>MOLECULE
*****
 19 20 0 0 0
SMALL
GASTEIGER

@<TRIPOS>ATOM
      1 C         140.2647  141.4478  166.0420 C.ar    1  UNL1        0.1374
      2 C         140.2447  142.9475  166.0630 C.ar    1  UNL1        0.0685
      3 C         139.2095  143.6949  165.2758 C.ar    1  UNL1        0.1704
      4 F         139.1896  145.1947  165.2969 F       1  UNL1       -0.2017
      5 C         138.1943  142.9426  164.4675 C.ar    1  UNL1        0.1673
      6 F         137.1591  143.6901  163.6802 F       1  UNL1       -0.2018
      7 C         138.2143  141.4430  164.4465 C.ar    1  UNL1        0.0307
      8 C         139.2495  140.6955  165.2337 C.ar    1  UNL1        0.0139
      9 C         139.2694  139.1958  165.2126 C.3     1  UNL1        0.0268
     10 C         138.6052  137.8835  165.5071 C.3     1  UNL1        0.0062
     11 C         139.9682  137.9105  164.8816 C.3     1  UNL1        0.0200
     12 C         141.1587  137.1839  164.3294 C.3     1  UNL1        0.0654
     13 N         141.2635  136.9278  162.8551 N.3     1  UNL1       -0.3211
     14 H         140.5239  136.2867  162.5680 H       1  UNL1        0.1189
     15 H         142.1721  136.5145  162.6456 H       1  UNL1        0.1189
     16 O         141.2999  140.7004  166.8293 O.3     1  UNL1       -0.4709
     17 C         141.0702  140.4076  168.2823 C.3     1  UNL1        0.2318
     18 C         139.1098  140.7602  169.9505 C.2     1  UNL1       -0.0011
     19 C         139.6967  140.0492  168.7672 C.2     1  UNL1        0.0207
@<TRIPOS>BOND
     1    18    19    2
     2    19    17    1
     3    17    16    1
     4    16     1    1
     5     1     2   ar
     6     2     3   ar
     7     3     4    1
     8     3     5   ar
     9     5     6    1
    10     5     7   ar
    11     7     8   ar
    12     8     9    1
    13     9    10    1
    14    10    11    1
    15    11    12    1
    16    12    13    1
    17     8     1   ar
    18    11     9    1
    19    13    14    1
    20    13    15    1
@<TRIPOS>MOLECULE
*****
 19 20 0 0 0
SMALL
GASTEIGER

@<TRIPOS>ATOM
      1 C         138.5211  140.7458  165.1069 C.ar    1  UNL1        0.1374
      2 C         137.9120  141.4539  163.9332 C.ar    1  UNL1        0.0685
      3 C         138.2110  142.9043  163.6946 C.ar    1  UNL1        0.1704
      4 F         137.6019  143.6124  162.5209 F       1  UNL1       -0.2017
      5 C         139.1191  143.6466  164.6297 C.ar    1  UNL1        0.1673
      6 F         139.4181  145.0970  164.3910 F       1  UNL1       -0.2018
      7 C         139.7282  142.9385  165.8033 C.ar    1  UNL1        0.0307
      8 C         139.4292  141.4881  166.0420 C.ar    1  UNL1        0.0139
      9 C         140.0383  140.7800  167.2157 C.3     1  UNL1        0.0268
     10 C         141.1367  139.9425  167.8006 C.3     1  UNL1        0.0062
     11 C         139.9949  140.3911  168.6637 C.3     1  UNL1        0.0200
     12 C         139.3106  140.4256  169.9981 C.3     1  UNL1        0.0654
     13 N         139.7864  139.5360  171.1082 N.3     1  UNL1       -0.3211
     14 H         139.6218  138.5612  170.8570 H       1  UNL1        0.1189
     15 H         139.2768  139.7575  171.9635 H       1  UNL1        0.1189
     16 O         138.2221  139.2954  165.3455 O.3     1  UNL1       -0.4709
     17 C         138.8108  138.2503  164.4450 C.3     1  UNL1        0.2318
     18 C         141.4076  138.2702  164.5236 C.2     1  UNL1       -0.0011
     19 C         140.1044  137.5858  164.8124 C.2     1  UNL1        0.0207
@<TRIPOS>BOND
     1    18    19    2
     2    19    17    1
     3    17    16    1
     4    16     1    1
     5     1     2   ar
     6     2     3   ar
     7     3     4    1
     8     3     5   ar
     9     5     6    1
    10     5     7   ar
    11     7     8   ar
    12     8     9    1
    13     9    10    1
    14    10    11    1
    15    11    12    1
    16    12    13    1
    17     8     1   ar
    18    11     9    1
    19    13    14    1
    20    13    15    1
@<TRIPOS>MOLECULE
*****
 19 20 0 0 0
SMALL
GASTEIGER

@<TRIPOS>ATOM
      1 C         141.0787  140.3127  166.2553 C.ar    1  UNL1        0.1374
      2 C         141.8052  139.8554  165.0253 C.ar    1  UNL1        0.0685
      3 C         143.0279  138.9959  165.1524 C.ar    1  UNL1        0.1704
      4 F         143.7545  138.5387  163.9223 F       1  UNL1       -0.2017
      5 C         143.5242  138.5937  166.5096 C.ar    1  UNL1        0.1673
      6 F         144.7469  137.7342  166.6367 F       1  UNL1       -0.2018
      7 C         142.7976  139.0509  167.7396 C.ar    1  UNL1        0.0307
      8 C         141.5749  139.9104  167.6124 C.ar    1  UNL1        0.0139
      9 C         140.8483  140.3677  168.8426 C.3     1  UNL1        0.0268
     10 C         140.1278  140.0499  170.1192 C.3     1  UNL1        0.0062
     11 C         140.3105  141.4774  169.6964 C.3     1  UNL1        0.0200
     12 C         140.1054  142.9423  169.9453 C.3     1  UNL1        0.0654
     13 N         139.3332  143.3979  171.1479 N.3     1  UNL1       -0.3211
     14 H         138.3610  143.1020  171.0598 H       1  UNL1        0.1189
     15 H         139.3745  144.4150  171.2132 H       1  UNL1        0.1189
     16 O         139.8559  141.1722  166.1281 O.3     1  UNL1       -0.4709
     17 C         138.6582  140.6665  165.3800 C.3     1  UNL1        0.2318
     18 C         137.9385  138.8103  167.0492 C.2     1  UNL1       -0.0011
     19 C         138.1406  139.2829  165.6400 C.2     1  UNL1        0.0207
@<TRIPOS>BOND
     1    18    19    2
     2    19    17    1
     3    17    16    1
     4    16     1    1
     5     1     2   ar
     6     2     3   ar
     7     3     4    1
     8     3     5   ar
     9     5     6    1
    10     5     7   ar
    11     7     8   ar
    12     8     9    1
    13     9    10    1
    14    10    11    1
    15    11    12    1
    16    12    13    1
    17     8     1   ar
    18    11     9    1
    19    13    14    1
    20    13    15    1
@<TRIPOS>MOLECULE
*****
 19 20 0 0 0
SMALL
GASTEIGER

@<TRIPOS>ATOM
      1 C         141.3884  140.9401  166.3259 C.ar    1  UNL1        0.1374
      2 C         141.8259  142.0363  167.2516 C.ar    1  UNL1        0.0685
      3 C         141.1214  142.2386  168.5603 C.ar    1  UNL1        0.1704
      4 F         141.5590  143.3348  169.4860 F       1  UNL1       -0.2017
      5 C         139.9792  141.3449  168.9433 C.ar    1  UNL1        0.1673
      6 F         139.2747  141.5472  170.2519 F       1  UNL1       -0.2018
      7 C         139.5417  140.2487  168.0175 C.ar    1  UNL1        0.0307
      8 C         140.2462  140.0464  166.7089 C.ar    1  UNL1        0.0139
      9 C         139.8086  138.9502  165.7831 C.3     1  UNL1        0.0268
     10 C         138.7123  138.1689  165.1215 C.3     1  UNL1        0.0062
     11 C         140.1470  137.8328  164.8414 C.3     1  UNL1        0.0200
     12 C         141.1708  136.9936  164.1359 C.3     1  UNL1        0.0654
     13 N         141.2754  137.0379  162.6403 N.3     1  UNL1       -0.3211
     14 H         140.4255  136.6524  162.2284 H       1  UNL1        0.1189
     15 H         142.0792  136.4870  162.3392 H       1  UNL1        0.1189
     16 O         142.0929  140.7378  165.0172 O.3     1  UNL1       -0.4709
     17 C         143.5583  140.4184  164.9959 C.3     1  UNL1        0.2318
     18 C         143.7672  138.2432  166.4012 C.2     1  UNL1       -0.0011
     19 C         144.0182  138.9969  165.1288 C.2     1  UNL1        0.0207
@<TRIPOS>BOND
     1    18    19    2
     2    19    17    1
     3    17    16    1
     4    16     1    1
     5     1     2   ar
     6     2     3   ar
     7     3     4    1
     8     3     5   ar
     9     5     6    1
    10     5     7   ar
    11     7     8   ar
    12     8     9    1
    13     9    10    1
    14    10    11    1
    15    11    12    1
    16    12    13    1
    17     8     1   ar
    18    11     9    1
    19    13    14    1
    20    13    15    1
@<TRIPOS>MOLECULE
*****
 19 20 0 0 0
SMALL
GASTEIGER

@<TRIPOS>ATOM
      1 C         140.1551  141.5395  166.9483 C.ar    1  UNL1        0.1374
      2 C         140.9180  142.5998  167.6854 C.ar    1  UNL1        0.0685
      3 C         141.0523  142.5268  169.1776 C.ar    1  UNL1        0.1704
      4 F         141.8153  143.5873  169.9148 F       1  UNL1       -0.2017
      5 C         140.4236  141.3934  169.9326 C.ar    1  UNL1        0.1673
      6 F         140.5579  141.3204  171.4248 F       1  UNL1       -0.2018
      7 C         139.6607  140.3331  169.1955 C.ar    1  UNL1        0.0307
      8 C         139.5264  140.4061  167.7033 C.ar    1  UNL1        0.0139
      9 C         138.7634  139.3456  166.9662 C.3     1  UNL1        0.0268
     10 C         137.6710  138.3182  166.9314 C.3     1  UNL1        0.0062
     11 C         138.5342  138.5363  165.7242 C.3     1  UNL1        0.0200
     12 C         138.9003  138.1950  164.3102 C.3     1  UNL1        0.0654
     13 N         139.5335  139.2302  163.4286 N.3     1  UNL1       -0.3211
     14 H         138.8673  139.9829  163.2555 H       1  UNL1        0.1189
     15 H         139.8023  138.8035  162.5420 H       1  UNL1        0.1189
     16 O         140.0208  141.6125  165.4561 O.3     1  UNL1       -0.4709
     17 C         139.9468  142.9464  164.7741 C.3     1  UNL1        0.2318
     18 C         138.5271  144.9590  165.6010 C.2     1  UNL1       -0.0011
     19 C         138.6598  143.7167  164.7708 C.2     1  UNL1        0.0207
@<TRIPOS>BOND
     1    18    19    2
     2    19    17    1
     3    17    16    1
     4    16     1    1
     5     1     2   ar
     6     2     3   ar
     7     3     4    1
     8     3     5   ar
     9     5     6    1
    10     5     7   ar
    11     7     8   ar
    12     8     9    1
    13     9    10    1
    14    10    11    1
    15    11    12    1
    16    12    13    1
    17     8     1   ar
    18    11     9    1
    19    13    14    1
    20    13    15    1
@<TRIPOS>MOLECULE
*****
 19 20 0 0 0
SMALL
GASTEIGER

@<TRIPOS>ATOM
      1 C         141.9801  142.0971  166.1201 C.ar    1  UNL1        0.1374
      2 C         143.0915  141.9004  167.1080 C.ar    1  UNL1        0.0685
      3 C         142.8867  142.2625  168.5492 C.ar    1  UNL1        0.1704
      4 F         143.9982  142.0658  169.5372 F       1  UNL1       -0.2017
      5 C         141.5706  142.8213  169.0024 C.ar    1  UNL1        0.1673
      6 F         141.3658  143.1835  170.4435 F       1  UNL1       -0.2018
      7 C         140.4592  143.0180  168.0144 C.ar    1  UNL1        0.0307
      8 C         140.6640  142.6559  166.5732 C.ar    1  UNL1        0.0139
      9 C         139.5525  142.8526  165.5853 C.3     1  UNL1        0.0268
     10 C         138.6484  143.7661  164.8119 C.3     1  UNL1        0.0062
     11 C         138.5316  142.2797  164.6475 C.3     1  UNL1        0.0200
     12 C         137.8746  141.0908  164.0111 C.3     1  UNL1        0.0654
     13 N         136.7581  141.2872  163.0290 N.3     1  UNL1       -0.3211
     14 H         135.9527  141.6921  163.5062 H       1  UNL1        0.1189
     15 H         136.4975  140.3871  162.6260 H       1  UNL1        0.1189
     16 O         142.1849  141.7350  164.6789 O.3     1  UNL1       -0.4709
     17 C         142.6409  142.7771  163.7012 C.3     1  UNL1        0.2318
     18 C         141.9104  145.2669  163.8345 C.2     1  UNL1       -0.0011
     19 C         142.8918  144.1815  164.1646 C.2     1  UNL1        0.0207
@<TRIPOS>BOND
     1    18    19    2
     2    19    17    1
     3    17    16    1
     4    16     1    1
     5     1     2   ar
     6     2     3   ar
     7     3     4    1
     8     3     5   ar
     9     5     6    1
    10     5     7   ar
    11     7     8   ar
    12     8     9    1
    13     9    10    1
    14    10    11    1
    15    11    12    1
    16    12    13    1
    17     8     1   ar
    18    11     9    1
    19    13    14    1
    20    13    15    1
@<TRIPOS>MOLECULE
*****
 19 20 0 0 0
SMALL
GASTEIGER

@<TRIPOS>ATOM
      1 C         140.8803  142.8589  165.6445 C.ar    1  UNL1        0.1374
      2 C         139.4004  143.0763  165.5323 C.ar    1  UNL1        0.0685
      3 C         138.8612  144.0733  164.5498 C.ar    1  UNL1        0.1704
      4 F         137.3812  144.2906  164.4376 F       1  UNL1       -0.2017
      5 C         139.8018  144.8529  163.6796 C.ar    1  UNL1        0.1673
      6 F         139.2626  145.8499  162.6971 F       1  UNL1       -0.2018
      7 C         141.2817  144.6356  163.7919 C.ar    1  UNL1        0.0307
      8 C         141.8210  143.6386  164.7743 C.ar    1  UNL1        0.0139
      9 C         143.3009  143.4213  164.8865 C.3     1  UNL1        0.0268
     10 C         144.6355  143.8276  165.4378 C.3     1  UNL1        0.0062
     11 C         144.5297  142.6385  164.5296 C.3     1  UNL1        0.0200
     12 C         145.1780  141.5001  163.7991 C.3     1  UNL1        0.0654
     13 N         146.4618  141.7203  163.0553 N.3     1  UNL1       -0.3211
     14 H         146.2971  142.3534  162.2728 H       1  UNL1        0.1189
     15 H         146.8083  140.8278  162.7034 H       1  UNL1        0.1189
     16 O         141.4196  141.8620  166.6270 O.3     1  UNL1       -0.4709
     17 C         141.7656  142.2944  168.0209 C.3     1  UNL1        0.2318
     18 C         143.5093  142.4803  169.9380 C.2     1  UNL1       -0.0011
     19 C         143.1879  142.2341  168.4936 C.2     1  UNL1        0.0207
@<TRIPOS>BOND
     1    18    19    2
     2    19    17    1
     3    17    16    1
     4    16     1    1
     5     1     2   ar
     6     2     3   ar
     7     3     4    1
     8     3     5   ar
     9     5     6    1
    10     5     7   ar
    11     7     8   ar
    12     8     9    1
    13     9    10    1
    14    10    11    1
    15    11    12    1
    16    12    13    1
    17     8     1   ar
    18    11     9    1
    19    13    14    1
    20    13    15    1
