@<TRIPOS>MOLECULE
*****
 24 27 0 0 0
SMALL
GASTEIGER

@<TRIPOS>ATOM
      1 O         139.4067  143.0239  164.9365 O.2     1  UNL1       -0.2520
      2 C         138.9715  142.7026  163.5374 C.2     1  UNL1        0.3111
      3 N         138.7931  143.6885  162.4212 N.am    1  UNL1       -0.2606
      4 C         138.3496  142.9342  161.2028 C.3     1  UNL1        0.1169
      5 C         138.2539  141.4820  161.5662 C.3     1  UNL1        0.1212
      6 N         138.6382  141.3388  163.0091 N.am    1  UNL1       -0.2413
      7 C         138.6816  140.0570  163.7869 C.ar    1  UNL1        0.0562
      8 C         139.2673  138.8231  163.1670 C.ar    1  UNL1        0.0150
      9 C         139.3106  137.5413  163.9449 C.ar    1  UNL1        0.0021
     10 C         138.7684  137.4935  165.3427 C.ar    1  UNL1        0.0115
     11 C         138.1827  138.7275  165.9625 C.ar    1  UNL1        0.0589
     12 CL        137.6404  138.6797  167.3603 Cl      1  UNL1       -0.0822
     13 C         138.1393  140.0093  165.1846 C.ar    1  UNL1        0.0263
     14 C         139.0187  145.1689  162.5080 C.3     1  UNL1        0.1123
     15 C         140.4025  145.7270  162.3543 C.3     1  UNL1        0.0944
     16 N         141.5955  144.8621  162.6348 N.3     1  UNL1       -0.2637
     17 C         142.3460  144.0417  161.6280 C.3     1  UNL1        0.0992
     18 C         143.4618  143.3383  162.3423 C.ar    1  UNL1       -0.0088
     19 C         144.5253  142.3964  161.8610 C.ar    1  UNL1       -0.0032
     20 C         145.5280  141.8402  162.8281 C.ar    1  UNL1       -0.0003
     21 C         145.4671  142.2259  164.2764 C.ar    1  UNL1       -0.0003
     22 C         144.4036  143.1678  164.7576 C.ar    1  UNL1       -0.0032
     23 C         143.4009  143.7240  163.7906 C.ar    1  UNL1       -0.0088
     24 C         142.2474  144.6657  163.9713 C.3     1  UNL1        0.0992
@<TRIPOS>BOND
     1     1     2    2
     2     2     3   am
     3     3    14    1
     4    14    15    1
     5    15    16    1
     6    16    17    1
     7    17    18    1
     8    18    19   ar
     9    19    20   ar
    10    20    21   ar
    11    21    22   ar
    12    22    23   ar
    13    23    24    1
    14     3     4    1
    15     4     5    1
    16     5     6    1
    17     6     7    1
    18     7     8   ar
    19     8     9   ar
    20     9    10   ar
    21    10    11   ar
    22    11    12    1
    23    11    13   ar
    24     6     2   am
    25    13     7   ar
    26    24    16    1
    27    23    18   ar
@<TRIPOS>MOLECULE
*****
 24 27 0 0 0
SMALL
GASTEIGER

@<TRIPOS>ATOM
      1 O         138.8771  142.3754  165.5668 O.2     1  UNL1       -0.2520
      2 C         138.9003  141.0267  164.9108 C.2     1  UNL1        0.3111
      3 N         138.2023  140.6539  163.6365 N.am    1  UNL1       -0.2606
      4 C         138.4962  139.2107  163.3519 C.3     1  UNL1        0.1169
      5 C         139.3759  138.6916  164.4505 C.3     1  UNL1        0.1212
      6 N         139.6257  139.8139  165.4138 N.am    1  UNL1       -0.2413
      7 C         140.4551  139.7369  166.6612 C.ar    1  UNL1        0.0562
      8 C         141.9169  139.4130  166.5711 C.ar    1  UNL1        0.0150
      9 C         142.7463  139.3360  167.8185 C.ar    1  UNL1        0.0021
     10 C         142.1139  139.5829  169.1561 C.ar    1  UNL1        0.0115
     11 C         140.6521  139.9068  169.2462 C.ar    1  UNL1        0.0589
     12 CL        140.0197  140.1538  170.5838 Cl      1  UNL1       -0.0822
     13 C         139.8227  139.9838  167.9988 C.ar    1  UNL1        0.0263
     14 C         137.3585  141.5645  162.7945 C.3     1  UNL1        0.1123
     15 C         138.0105  142.5535  161.8744 C.3     1  UNL1        0.0944
     16 N         139.4051  143.0305  162.1528 N.3     1  UNL1       -0.2637
     17 C         139.7800  144.2243  162.9801 C.3     1  UNL1        0.0992
     18 C         141.2762  144.3291  162.9914 C.ar    1  UNL1       -0.0088
     19 C         142.2090  145.3067  163.6426 C.ar    1  UNL1       -0.0032
     20 C         143.6917  145.1554  163.4736 C.ar    1  UNL1       -0.0003
     21 C         144.2416  144.0264  162.6532 C.ar    1  UNL1       -0.0003
     22 C         143.3089  143.0488  162.0019 C.ar    1  UNL1       -0.0032
     23 C         141.8262  143.2002  162.1710 C.ar    1  UNL1       -0.0088
     24 C         140.6698  142.3976  161.6527 C.3     1  UNL1        0.0992
@<TRIPOS>BOND
     1     1     2    2
     2     2     3   am
     3     3    14    1
     4    14    15    1
     5    15    16    1
     6    16    17    1
     7    17    18    1
     8    18    19   ar
     9    19    20   ar
    10    20    21   ar
    11    21    22   ar
    12    22    23   ar
    13    23    24    1
    14     3     4    1
    15     4     5    1
    16     5     6    1
    17     6     7    1
    18     7     8   ar
    19     8     9   ar
    20     9    10   ar
    21    10    11   ar
    22    11    12    1
    23    11    13   ar
    24     6     2   am
    25    13     7   ar
    26    24    16    1
    27    23    18   ar
@<TRIPOS>MOLECULE
*****
 24 27 0 0 0
SMALL
GASTEIGER

@<TRIPOS>ATOM
      1 O         141.5364  139.6305  165.2539 O.2     1  UNL1       -0.2520
      2 C         140.2572  139.3838  165.9973 C.2     1  UNL1        0.3111
      3 N         139.1049  138.5520  165.5174 N.am    1  UNL1       -0.2606
      4 C         138.0411  138.5796  166.5747 C.3     1  UNL1        0.1169
      5 C         138.5361  139.4285  167.7080 C.3     1  UNL1        0.1212
      6 N         139.9057  139.9255  167.3512 N.am    1  UNL1       -0.2413
      7 C         140.7716  140.8090  168.1994 C.ar    1  UNL1        0.0562
      8 C         142.1661  140.3806  168.5482 C.ar    1  UNL1        0.0150
      9 C         143.0321  141.2642  169.3964 C.ar    1  UNL1        0.0021
     10 C         142.5034  142.5762  169.8958 C.ar    1  UNL1        0.0115
     11 C         141.1089  143.0045  169.5469 C.ar    1  UNL1        0.0589
     12 CL        140.5803  144.3165  170.0462 Cl      1  UNL1       -0.0822
     13 C         140.2430  142.1210  168.6987 C.ar    1  UNL1        0.0263
     14 C         139.0295  137.8210  164.2097 C.3     1  UNL1        0.1123
     15 C         138.5179  138.5226  162.9867 C.3     1  UNL1        0.0944
     16 N         138.6883  140.0063  162.8466 N.3     1  UNL1       -0.2637
     17 C         137.6865  141.0501  163.2425 C.3     1  UNL1        0.0992
     18 C         138.2695  142.3956  162.9267 C.ar    1  UNL1       -0.0088
     19 C         137.7360  143.7866  163.1010 C.ar    1  UNL1       -0.0032
     20 C         138.5648  144.9654  162.6842 C.ar    1  UNL1       -0.0003
     21 C         139.9270  144.7531  162.0932 C.ar    1  UNL1       -0.0003
     22 C         140.4605  143.3621  161.9189 C.ar    1  UNL1       -0.0032
     23 C         139.6317  142.1833  162.3357 C.ar    1  UNL1       -0.0088
     24 C         139.8906  140.7066  162.2862 C.3     1  UNL1        0.0992
@<TRIPOS>BOND
     1     1     2    2
     2     2     3   am
     3     3    14    1
     4    14    15    1
     5    15    16    1
     6    16    17    1
     7    17    18    1
     8    18    19   ar
     9    19    20   ar
    10    20    21   ar
    11    21    22   ar
    12    22    23   ar
    13    23    24    1
    14     3     4    1
    15     4     5    1
    16     5     6    1
    17     6     7    1
    18     7     8   ar
    19     8     9   ar
    20     9    10   ar
    21    10    11   ar
    22    11    12    1
    23    11    13   ar
    24     6     2   am
    25    13     7   ar
    26    24    16    1
    27    23    18   ar
@<TRIPOS>MOLECULE
*****
 24 27 0 0 0
SMALL
GASTEIGER

@<TRIPOS>ATOM
      1 O         139.6751  143.1308  164.8937 O.2     1  UNL1       -0.2520
      2 C         139.1195  142.7628  163.5499 C.2     1  UNL1        0.3111
      3 N         138.8243  143.7131  162.4275 N.am    1  UNL1       -0.2606
      4 C         138.2839  142.9174  161.2764 C.3     1  UNL1        0.1169
      5 C         138.2452  141.4753  161.6875 C.3     1  UNL1        0.1212
      6 N         138.7616  141.3798  163.0926 N.am    1  UNL1       -0.2413
      7 C         138.8964  140.1220  163.8986 C.ar    1  UNL1        0.0562
      8 C         138.0722  139.9333  165.1376 C.ar    1  UNL1        0.0150
      9 C         138.2070  138.6755  165.9437 C.ar    1  UNL1        0.0021
     10 C         139.1661  137.6064  165.5108 C.ar    1  UNL1        0.0115
     11 C         139.9903  137.7952  164.2718 C.ar    1  UNL1        0.0589
     12 CL        140.9493  136.7261  163.8389 Cl      1  UNL1       -0.0822
     13 C         139.8554  139.0530  163.4657 C.ar    1  UNL1        0.0263
     14 C         139.0329  145.1984  162.4519 C.3     1  UNL1        0.1123
     15 C         140.4161  145.7637  162.3215 C.3     1  UNL1        0.0944
     16 N         141.6091  144.9018  162.6111 N.3     1  UNL1       -0.2637
     17 C         142.3076  144.7783  163.9328 C.3     1  UNL1        0.0992
     18 C         143.4432  143.8122  163.7685 C.ar    1  UNL1       -0.0088
     19 C         144.4746  143.3025  164.7310 C.ar    1  UNL1       -0.0032
     20 C         145.5094  142.3193  164.2702 C.ar    1  UNL1       -0.0003
     21 C         145.5127  141.8456  162.8469 C.ar    1  UNL1       -0.0003
     22 C         144.4813  142.3553  161.8845 C.ar    1  UNL1       -0.0032
     23 C         143.4465  143.3385  162.3452 C.ar    1  UNL1       -0.0088
     24 C         142.3130  144.0120  161.6300 C.3     1  UNL1        0.0992
@<TRIPOS>BOND
     1     1     2    2
     2     2     3   am
     3     3    14    1
     4    14    15    1
     5    15    16    1
     6    16    17    1
     7    17    18    1
     8    18    19   ar
     9    19    20   ar
    10    20    21   ar
    11    21    22   ar
    12    22    23   ar
    13    23    24    1
    14     3     4    1
    15     4     5    1
    16     5     6    1
    17     6     7    1
    18     7     8   ar
    19     8     9   ar
    20     9    10   ar
    21    10    11   ar
    22    11    12    1
    23    11    13   ar
    24     6     2   am
    25    13     7   ar
    26    24    16    1
    27    23    18   ar
@<TRIPOS>MOLECULE
*****
 24 27 0 0 0
SMALL
GASTEIGER

@<TRIPOS>ATOM
      1 O         142.5800  139.7895  166.3407 O.2     1  UNL1       -0.2520
      2 C         141.1149  139.4806  166.2520 C.2     1  UNL1        0.3111
      3 N         140.4339  138.7508  165.1323 N.am    1  UNL1       -0.2606
      4 C         138.9715  138.6664  165.4557 C.3     1  UNL1        0.1169
      5 C         138.7489  139.3441  166.7753 C.3     1  UNL1        0.1212
      6 N         140.0735  139.8473  167.2674 N.am    1  UNL1       -0.2413
      7 C         140.3143  140.5871  168.5497 C.ar    1  UNL1        0.0562
      8 C         140.6392  139.8297  169.8030 C.ar    1  UNL1        0.0150
      9 C         140.8800  140.5697  171.0853 C.ar    1  UNL1        0.0021
     10 C         140.7960  142.0671  171.1144 C.ar    1  UNL1        0.0115
     11 C         140.4712  142.8245  169.8611 C.ar    1  UNL1        0.0589
     12 CL        140.3872  144.3219  169.8901 Cl      1  UNL1       -0.0822
     13 C         140.2303  142.0845  168.5787 C.ar    1  UNL1        0.0263
     14 C         141.0985  138.2018  163.9047 C.3     1  UNL1        0.1123
     15 C         141.3969  139.1057  162.7455 C.3     1  UNL1        0.0944
     16 N         141.7451  140.5447  162.9868 N.3     1  UNL1       -0.2637
     17 C         140.7696  141.6726  163.1492 C.3     1  UNL1        0.0992
     18 C         141.5515  142.9334  163.3707 C.ar    1  UNL1       -0.0088
     19 C         141.1236  144.3539  163.5924 C.ar    1  UNL1       -0.0032
     20 C         142.1544  145.4257  163.7885 C.ar    1  UNL1       -0.0003
     21 C         143.6131  145.0770  163.7631 C.ar    1  UNL1       -0.0003
     22 C         144.0410  143.6566  163.5414 C.ar    1  UNL1       -0.0032
     23 C         143.0102  142.5847  163.3453 C.ar    1  UNL1       -0.0088
     24 C         143.1298  141.1085  163.1080 C.3     1  UNL1        0.0992
@<TRIPOS>BOND
     1     1     2    2
     2     2     3   am
     3     3    14    1
     4    14    15    1
     5    15    16    1
     6    16    17    1
     7    17    18    1
     8    18    19   ar
     9    19    20   ar
    10    20    21   ar
    11    21    22   ar
    12    22    23   ar
    13    23    24    1
    14     3     4    1
    15     4     5    1
    16     5     6    1
    17     6     7    1
    18     7     8   ar
    19     8     9   ar
    20     9    10   ar
    21    10    11   ar
    22    11    12    1
    23    11    13   ar
    24     6     2   am
    25    13     7   ar
    26    24    16    1
    27    23    18   ar
@<TRIPOS>MOLECULE
*****
 24 27 0 0 0
SMALL
GASTEIGER

@<TRIPOS>ATOM
      1 O         137.7111  139.3182  165.8387 O.2     1  UNL1       -0.2520
      2 C         139.1389  139.0032  165.5035 C.2     1  UNL1        0.3111
      3 N         139.6166  138.2599  164.2913 N.am    1  UNL1       -0.2606
      4 C         141.1126  138.1735  164.3603 C.3     1  UNL1        0.1169
      5 C         141.5593  138.8634  165.6151 C.3     1  UNL1        0.1212
      6 N         140.3395  139.3761  166.3217 N.am    1  UNL1       -0.2413
      7 C         140.3232  140.1295  167.6186 C.ar    1  UNL1        0.0562
      8 C         139.2140  139.9043  168.6029 C.ar    1  UNL1        0.0150
      9 C         139.1978  140.6578  169.8998 C.ar    1  UNL1        0.0021
     10 C         140.2908  141.6364  170.2124 C.ar    1  UNL1        0.0115
     11 C         141.4000  141.8616  169.2281 C.ar    1  UNL1        0.0589
     12 CL        142.4930  142.8402  169.5407 Cl      1  UNL1       -0.0822
     13 C         141.4162  141.1081  167.9312 C.ar    1  UNL1        0.0263
     14 C         138.7505  137.7012  163.2015 C.3     1  UNL1        0.1123
     15 C         138.2992  138.5835  162.0755 C.3     1  UNL1        0.0944
     16 N         138.5219  140.0651  162.1481 N.3     1  UNL1       -0.2637
     17 C         139.7162  140.8041  161.6213 C.3     1  UNL1        0.0992
     18 C         139.5218  142.2635  161.9078 C.ar    1  UNL1       -0.0088
     19 C         140.3718  143.4651  161.6187 C.ar    1  UNL1       -0.0032
     20 C         139.9074  144.8297  162.0335 C.ar    1  UNL1       -0.0003
     21 C         138.5930  144.9928  162.7374 C.ar    1  UNL1       -0.0003
     22 C         137.7429  143.7912  163.0266 C.ar    1  UNL1       -0.0032
     23 C         138.2073  142.4266  162.6118 C.ar    1  UNL1       -0.0088
     24 C         137.5893  141.0679  162.7603 C.3     1  UNL1        0.0992
@<TRIPOS>BOND
     1     1     2    2
     2     2     3   am
     3     3    14    1
     4    14    15    1
     5    15    16    1
     6    16    17    1
     7    17    18    1
     8    18    19   ar
     9    19    20   ar
    10    20    21   ar
    11    21    22   ar
    12    22    23   ar
    13    23    24    1
    14     3     4    1
    15     4     5    1
    16     5     6    1
    17     6     7    1
    18     7     8   ar
    19     8     9   ar
    20     9    10   ar
    21    10    11   ar
    22    11    12    1
    23    11    13   ar
    24     6     2   am
    25    13     7   ar
    26    24    16    1
    27    23    18   ar
@<TRIPOS>MOLECULE
*****
 24 27 0 0 0
SMALL
GASTEIGER

@<TRIPOS>ATOM
      1 O         142.5871  141.0741  162.1046 O.2     1  UNL1       -0.2520
      2 C         143.2970  141.9672  163.0784 C.2     1  UNL1        0.3111
      3 N         144.4792  141.5897  163.9210 N.am    1  UNL1       -0.2606
      4 C         144.8621  142.7839  164.7440 C.3     1  UNL1        0.1169
      5 C         143.9164  143.8994  164.4101 C.3     1  UNL1        0.1212
      6 N         142.9491  143.3947  163.3808 N.am    1  UNL1       -0.2413
      7 C         141.8305  144.1796  162.7623 C.ar    1  UNL1        0.0562
      8 C         140.7014  144.6761  163.6158 C.ar    1  UNL1        0.0150
      9 C         139.5828  145.4610  162.9973 C.ar    1  UNL1        0.0021
     10 C         139.5933  145.7495  161.5253 C.ar    1  UNL1        0.0115
     11 C         140.7225  145.2530  160.6719 C.ar    1  UNL1        0.0589
     12 CL        140.7331  145.5415  159.1999 Cl      1  UNL1       -0.0822
     13 C         141.8411  144.4681  161.2904 C.ar    1  UNL1        0.0263
     14 C         145.1591  140.2528  163.9375 C.3     1  UNL1        0.1123
     15 C         144.6801  139.1792  164.8692 C.3     1  UNL1        0.0944
     16 N         143.2230  139.0776  165.2104 N.3     1  UNL1       -0.2637
     17 C         142.5147  139.8423  166.2891 C.3     1  UNL1        0.0992
     18 C         141.0723  139.4308  166.2783 C.ar    1  UNL1       -0.0088
     19 C         139.9020  139.8524  167.1165 C.ar    1  UNL1       -0.0032
     20 C         138.5485  139.2549  166.8694 C.ar    1  UNL1       -0.0003
     21 C         138.3654  138.2358  165.7841 C.ar    1  UNL1       -0.0003
     22 C         139.5357  137.8142  164.9459 C.ar    1  UNL1       -0.0032
     23 C         140.8891  138.4117  165.1930 C.ar    1  UNL1       -0.0088
     24 C         142.2183  138.1935  164.5330 C.3     1  UNL1        0.0992
@<TRIPOS>BOND
     1     1     2    2
     2     2     3   am
     3     3    14    1
     4    14    15    1
     5    15    16    1
     6    16    17    1
     7    17    18    1
     8    18    19   ar
     9    19    20   ar
    10    20    21   ar
    11    21    22   ar
    12    22    23   ar
    13    23    24    1
    14     3     4    1
    15     4     5    1
    16     5     6    1
    17     6     7    1
    18     7     8   ar
    19     8     9   ar
    20     9    10   ar
    21    10    11   ar
    22    11    12    1
    23    11    13   ar
    24     6     2   am
    25    13     7   ar
    26    24    16    1
    27    23    18   ar
@<TRIPOS>MOLECULE
*****
 24 27 0 0 0
SMALL
GASTEIGER

@<TRIPOS>ATOM
      1 O         141.2184  138.0056  165.3689 O.2     1  UNL1       -0.2520
      2 C         140.0538  138.8502  164.9440 C.2     1  UNL1        0.3111
      3 N         139.3301  138.7589  163.6333 N.am    1  UNL1       -0.2606
      4 C         138.2375  139.7866  163.6345 C.3     1  UNL1        0.1169
      5 C         138.2860  140.5131  164.9460 C.3     1  UNL1        0.1212
      6 N         139.4085  139.9344  165.7553 N.am    1  UNL1       -0.2413
      7 C         139.8144  140.3643  167.1337 C.ar    1  UNL1        0.0562
      8 C         139.0151  139.9217  168.3233 C.ar    1  UNL1        0.0150
      9 C         139.4210  140.3517  169.7018 C.ar    1  UNL1        0.0021
     10 C         140.6264  141.2244  169.8907 C.ar    1  UNL1        0.0115
     11 C         141.4257  141.6670  168.7012 C.ar    1  UNL1        0.0589
     12 CL        142.6310  142.5397  168.8901 Cl      1  UNL1       -0.0822
     13 C         141.0197  141.2370  167.3227 C.ar    1  UNL1        0.0263
     14 C         139.6439  137.8069  162.5173 C.3     1  UNL1        0.1123
     15 C         140.8490  138.0348  161.6538 C.3     1  UNL1        0.0944
     16 N         141.8823  139.0437  162.0591 N.3     1  UNL1       -0.2637
     17 C         141.8238  140.5196  161.7975 C.3     1  UNL1        0.0992
     18 C         143.0609  141.1420  162.3740 C.ar    1  UNL1       -0.0088
     19 C         143.5441  142.5613  162.4160 C.ar    1  UNL1       -0.0032
     20 C         144.8505  142.8895  163.0761 C.ar    1  UNL1       -0.0003
     21 C         145.6736  141.7983  163.6940 C.ar    1  UNL1       -0.0003
     22 C         145.1903  140.3789  163.6519 C.ar    1  UNL1       -0.0032
     23 C         143.8839  140.0508  162.9919 C.ar    1  UNL1       -0.0088
     24 C         143.1555  138.7540  162.7973 C.3     1  UNL1        0.0992
@<TRIPOS>BOND
     1     1     2    2
     2     2     3   am
     3     3    14    1
     4    14    15    1
     5    15    16    1
     6    16    17    1
     7    17    18    1
     8    18    19   ar
     9    19    20   ar
    10    20    21   ar
    11    21    22   ar
    12    22    23   ar
    13    23    24    1
    14     3     4    1
    15     4     5    1
    16     5     6    1
    17     6     7    1
    18     7     8   ar
    19     8     9   ar
    20     9    10   ar
    21    10    11   ar
    22    11    12    1
    23    11    13   ar
    24     6     2   am
    25    13     7   ar
    26    24    16    1
    27    23    18   ar
@<TRIPOS>MOLECULE
*****
 24 27 0 0 0
SMALL
GASTEIGER

@<TRIPOS>ATOM
      1 O         141.3609  142.8512  163.7177 O.2     1  UNL1       -0.2520
      2 C         140.8205  143.9821  162.8936 C.2     1  UNL1        0.3111
      3 N         139.6969  144.8970  163.2812 N.am    1  UNL1       -0.2606
      4 C         139.4908  145.8770  162.1643 C.3     1  UNL1        0.1169
      5 C         140.4872  145.5676  161.0866 C.3     1  UNL1        0.1212
      6 N         141.3090  144.3965  161.5373 N.am    1  UNL1       -0.2413
      7 C         142.4235  143.7529  160.7669 C.ar    1  UNL1        0.0562
      8 C         143.6366  143.2435  161.4872 C.ar    1  UNL1        0.0150
      9 C         144.7511  142.5999  160.7167 C.ar    1  UNL1        0.0021
     10 C         144.6525  142.4657  159.2260 C.ar    1  UNL1        0.0115
     11 C         143.4394  142.9751  158.5057 C.ar    1  UNL1        0.0589
     12 CL        143.3408  142.8409  157.0149 Cl      1  UNL1       -0.0822
     13 C         142.3249  143.6187  159.2762 C.ar    1  UNL1        0.0263
     14 C         138.9162  144.8418  164.5609 C.3     1  UNL1        0.1123
     15 C         137.7864  143.8663  164.7086 C.3     1  UNL1        0.0944
     16 N         137.9411  142.4588  164.2135 N.3     1  UNL1       -0.2637
     17 C         137.5761  141.9598  162.8469 C.3     1  UNL1        0.0992
     18 C         137.8973  140.4958  162.7869 C.ar    1  UNL1       -0.0088
     19 C         137.7495  139.4798  161.6933 C.ar    1  UNL1       -0.0032
     20 C         138.1652  138.0581  161.9294 C.ar    1  UNL1       -0.0003
     21 C         138.7287  137.6523  163.2590 C.ar    1  UNL1       -0.0003
     22 C         138.8766  138.6683  164.3525 C.ar    1  UNL1       -0.0032
     23 C         138.4609  140.0901  164.1165 C.ar    1  UNL1       -0.0088
     24 C         138.4879  141.3033  164.9982 C.3     1  UNL1        0.0992
@<TRIPOS>BOND
     1     1     2    2
     2     2     3   am
     3     3    14    1
     4    14    15    1
     5    15    16    1
     6    16    17    1
     7    17    18    1
     8    18    19   ar
     9    19    20   ar
    10    20    21   ar
    11    21    22   ar
    12    22    23   ar
    13    23    24    1
    14     3     4    1
    15     4     5    1
    16     5     6    1
    17     6     7    1
    18     7     8   ar
    19     8     9   ar
    20     9    10   ar
    21    10    11   ar
    22    11    12    1
    23    11    13   ar
    24     6     2   am
    25    13     7   ar
    26    24    16    1
    27    23    18   ar
