@<TRIPOS>MOLECULE
*****
 30 33 0 0 0
SMALL
GASTEIGER

@<TRIPOS>ATOM
      1 C         140.0057  139.1189  163.0447 C.ar    1  UNL1       -0.0003
      2 C         138.8143  139.3789  162.1712 C.ar    1  UNL1        0.0001
      3 C         138.9009  139.1373  160.6934 C.ar    1  UNL1        0.0042
      4 C         140.1789  138.6359  160.0889 C.ar    1  UNL1        0.0497
      5 C         141.3703  138.3759  160.9624 C.ar    1  UNL1       -0.0161
      6 C         141.2837  138.6174  162.4402 C.ar    1  UNL1       -0.0041
      7 C         142.6482  137.8744  160.3580 C.3     1  UNL1        0.0480
      8 C         142.7348  137.6329  158.8801 C.3     1  UNL1        0.0984
      9 N         141.5434  137.8929  158.0066 N.am    1  UNL1       -0.2743
     10 C         140.2654  138.3943  158.6110 C.2     1  UNL1        0.2488
     11 O         139.0740  138.6543  157.7375 O.2     1  UNL1       -0.2699
     12 C         139.7461  139.8434  167.4784 C.ar    1  UNL1        0.0534
     13 C         141.0309  140.1048  166.7498 C.ar    1  UNL1        0.0045
     14 C         141.1174  139.8633  165.2718 C.ar    1  UNL1        0.0001
     15 C         139.9192  139.3604  164.5226 C.ar    1  UNL1       -0.0000
     16 C         138.6344  139.0991  165.2513 C.ar    1  UNL1        0.0001
     17 C         138.5478  139.3406  166.7291 C.ar    1  UNL1        0.0045
     18 C         140.7582  140.8694  171.1761 C.3     1  UNL1        0.1109
     19 N         140.8447  140.6279  169.6982 N.am    1  UNL1       -0.2992
     20 C         139.6595  140.0849  168.9563 C.2     1  UNL1        0.2459
     21 O         138.3877  139.7835  169.6923 O.2     1  UNL1       -0.2701
     22 H         141.6794  140.8257  169.2151 H       1  UNL1        0.1498
     23 C         141.6299  137.6513  156.5287 C.3     1  UNL1        0.1110
     24 C         142.6530  136.6999  155.9829 C.3     1  UNL1        0.0938
     25 N         142.2914  135.2630  155.7485 N.3     1  UNL1       -0.2725
     26 C         141.4036  134.7443  154.6564 C.3     1  UNL1        0.0721
     27 C         141.3175  133.2534  154.7979 C.3     1  UNL1        0.0187
     28 C         142.1520  132.8509  155.9776 C.3     1  UNL1        0.0174
     29 C         142.7539  134.0929  156.5651 C.3     1  UNL1        0.0576
     30 C         143.6594  134.1541  157.7593 C.3     1  UNL1        0.0173
@<TRIPOS>BOND
     1    18    19    1
     2    19    20   am
     3    20    21    2
     4    20    12    1
     5    12    13   ar
     6    13    14   ar
     7    14    15   ar
     8    15     1    1
     9     1     2   ar
    10     2     3   ar
    11     3     4   ar
    12     4     5   ar
    13     5     6   ar
    14     5     7    1
    15     7     8    1
    16     8     9    1
    17     9    23    1
    18    23    24    1
    19    24    25    1
    20    25    26    1
    21    26    27    1
    22    27    28    1
    23    28    29    1
    24    29    30    1
    25     9    10   am
    26    10    11    2
    27    15    16   ar
    28    16    17   ar
    29    17    12   ar
    30     6     1   ar
    31    29    25    1
    32    10     4    1
    33    19    22    1
@<TRIPOS>MOLECULE
*****
 30 33 0 0 0
SMALL
GASTEIGER

@<TRIPOS>ATOM
      1 C         140.4265  138.5640  162.7433 C.ar    1  UNL1       -0.0003
      2 C         139.3402  137.6622  163.2497 C.ar    1  UNL1        0.0001
      3 C         138.8080  137.8373  164.6411 C.ar    1  UNL1        0.0042
      4 C         139.3620  138.9142  165.5261 C.ar    1  UNL1        0.0497
      5 C         140.4483  139.8161  165.0197 C.ar    1  UNL1       -0.0161
      6 C         140.9806  139.6410  163.6283 C.ar    1  UNL1       -0.0041
      7 C         141.0024  140.8931  165.9046 C.3     1  UNL1        0.0480
      8 C         140.4701  141.0682  167.2960 C.3     1  UNL1        0.0984
      9 N         139.3838  140.1663  167.8025 N.am    1  UNL1       -0.2743
     10 C         138.8297  139.0893  166.9175 C.2     1  UNL1        0.2488
     11 O         137.7434  138.1874  167.4240 O.2     1  UNL1       -0.2699
     12 C         142.0235  138.0388  158.5691 C.ar    1  UNL1        0.0534
     13 C         140.6253  138.5395  158.7797 C.ar    1  UNL1        0.0045
     14 C         140.0930  138.7146  160.1711 C.ar    1  UNL1        0.0001
     15 C         140.9589  138.3890  161.3519 C.ar    1  UNL1       -0.0000
     16 C         142.3570  137.8883  161.1413 C.ar    1  UNL1        0.0001
     17 C         142.8894  137.7132  159.7499 C.ar    1  UNL1        0.0045
     18 C         143.9755  136.5230  155.4639 C.3     1  UNL1        0.1109
     19 N         143.4431  136.6981  156.8554 N.am    1  UNL1       -0.2992
     20 C         142.5558  137.8637  157.1777 C.2     1  UNL1        0.2459
     21 O         142.2009  138.8543  156.1087 O.2     1  UNL1       -0.2701
     22 H         143.6761  136.0480  157.5570 H       1  UNL1        0.1498
     23 C         138.8515  140.3414  169.1939 C.3     1  UNL1        0.1110
     24 C         139.7843  140.2799  170.3670 C.3     1  UNL1        0.0938
     25 N         141.1052  140.9888  170.3128 N.3     1  UNL1       -0.2725
     26 C         141.3222  142.4631  170.4841 C.3     1  UNL1        0.0721
     27 C         142.7921  142.7333  170.3550 C.3     1  UNL1        0.0187
     28 C         143.4834  141.4259  170.1040 C.3     1  UNL1        0.0174
     29 C         142.4408  140.3478  170.0779 C.3     1  UNL1        0.0576
     30 C         142.6900  138.8854  169.8559 C.3     1  UNL1        0.0173
@<TRIPOS>BOND
     1    18    19    1
     2    19    20   am
     3    20    21    2
     4    20    12    1
     5    12    13   ar
     6    13    14   ar
     7    14    15   ar
     8    15     1    1
     9     1     2   ar
    10     2     3   ar
    11     3     4   ar
    12     4     5   ar
    13     5     6   ar
    14     5     7    1
    15     7     8    1
    16     8     9    1
    17     9    23    1
    18    23    24    1
    19    24    25    1
    20    25    26    1
    21    26    27    1
    22    27    28    1
    23    28    29    1
    24    29    30    1
    25     9    10   am
    26    10    11    2
    27    15    16   ar
    28    16    17   ar
    29    17    12   ar
    30     6     1   ar
    31    29    25    1
    32    10     4    1
    33    19    22    1
@<TRIPOS>MOLECULE
*****
 30 33 0 0 0
SMALL
GASTEIGER

@<TRIPOS>ATOM
      1 C         143.1874  139.8127  163.1172 C.ar    1  UNL1       -0.0003
      2 C         142.9858  138.5433  162.3440 C.ar    1  UNL1        0.0001
      3 C         143.1441  138.5405  160.8524 C.ar    1  UNL1        0.0042
      4 C         143.5041  139.8071  160.1340 C.ar    1  UNL1        0.0497
      5 C         143.7057  141.0765  160.9072 C.ar    1  UNL1       -0.0161
      6 C         143.5473  141.0793  162.3988 C.ar    1  UNL1       -0.0041
      7 C         144.0656  142.3432  160.1888 C.3     1  UNL1        0.0480
      8 C         144.2239  142.3404  158.6972 C.3     1  UNL1        0.0984
      9 N         144.0223  141.0709  157.9240 N.am    1  UNL1       -0.2743
     10 C         143.6624  139.8043  158.6424 C.2     1  UNL1        0.2488
     11 O         143.4608  138.5349  157.8692 O.2     1  UNL1       -0.2699
     12 C         142.7124  139.8213  167.5921 C.ar    1  UNL1        0.0534
     13 C         143.2323  138.5988  166.8954 C.ar    1  UNL1        0.0045
     14 C         143.3906  138.5960  165.4038 C.ar    1  UNL1        0.0001
     15 C         143.0291  139.8156  164.6089 C.ar    1  UNL1       -0.0000
     16 C         142.5092  141.0380  165.3055 C.ar    1  UNL1        0.0001
     17 C         142.3509  141.0409  166.7971 C.ar    1  UNL1        0.0045
     18 C         141.7829  141.0114  171.2622 C.3     1  UNL1        0.1109
     19 N         141.9413  141.0085  169.7705 N.am    1  UNL1       -0.2992
     20 C         142.5541  139.8242  169.0837 C.2     1  UNL1        0.2459
     21 O         143.0085  138.6427  169.8885 O.2     1  UNL1       -0.2701
     22 H         141.6430  141.7839  169.2423 H       1  UNL1        0.1498
     23 C         144.1807  141.0681  156.4324 C.3     1  UNL1        0.1110
     24 C         144.8100  142.2421  155.7427 C.3     1  UNL1        0.0938
     25 N         146.1972  142.1281  155.1832 N.3     1  UNL1       -0.2725
     26 C         146.5544  141.6833  153.7960 C.3     1  UNL1        0.0721
     27 C         148.0486  141.7191  153.6681 C.3     1  UNL1        0.0187
     28 C         148.6147  142.1862  154.9763 C.3     1  UNL1        0.0174
     29 C         147.4704  142.4389  155.9127 C.3     1  UNL1        0.0576
     30 C         147.5801  142.9183  157.3298 C.3     1  UNL1        0.0173
@<TRIPOS>BOND
     1    18    19    1
     2    19    20   am
     3    20    21    2
     4    20    12    1
     5    12    13   ar
     6    13    14   ar
     7    14    15   ar
     8    15     1    1
     9     1     2   ar
    10     2     3   ar
    11     3     4   ar
    12     4     5   ar
    13     5     6   ar
    14     5     7    1
    15     7     8    1
    16     8     9    1
    17     9    23    1
    18    23    24    1
    19    24    25    1
    20    25    26    1
    21    26    27    1
    22    27    28    1
    23    28    29    1
    24    29    30    1
    25     9    10   am
    26    10    11    2
    27    15    16   ar
    28    16    17   ar
    29    17    12   ar
    30     6     1   ar
    31    29    25    1
    32    10     4    1
    33    19    22    1
@<TRIPOS>MOLECULE
*****
 30 33 0 0 0
SMALL
GASTEIGER

@<TRIPOS>ATOM
      1 C         139.2235  139.8061  163.4257 C.ar    1  UNL1       -0.0003
      2 C         138.0013  140.2760  162.6941 C.ar    1  UNL1        0.0001
      3 C         137.9268  140.1517  161.2011 C.ar    1  UNL1        0.0042
      4 C         139.0746  139.5574  160.4398 C.ar    1  UNL1        0.0497
      5 C         140.2968  139.0875  161.1715 C.ar    1  UNL1       -0.0161
      6 C         140.3712  139.2119  162.6645 C.ar    1  UNL1       -0.0041
      7 C         141.4445  138.4933  160.4102 C.3     1  UNL1        0.0480
      8 C         141.3700  138.3689  158.9173 C.3     1  UNL1        0.0984
      9 N         140.1478  138.8388  158.1855 N.am    1  UNL1       -0.2743
     10 C         139.0000  139.4331  158.9468 C.2     1  UNL1        0.2488
     11 O         137.7778  139.9030  158.2152 O.2     1  UNL1       -0.2699
     12 C         139.4470  140.1791  167.9048 C.ar    1  UNL1        0.0534
     13 C         140.3852  140.9665  167.0389 C.ar    1  UNL1        0.0045
     14 C         140.3107  140.8422  165.5458 C.ar    1  UNL1        0.0001
     15 C         139.2980  139.9305  164.9188 C.ar    1  UNL1       -0.0000
     16 C         138.3598  139.1431  165.7847 C.ar    1  UNL1        0.0001
     17 C         138.4343  139.2674  167.2776 C.ar    1  UNL1        0.0045
     18 C         140.8379  140.9657  171.5375 C.3     1  UNL1        0.1109
     19 N         140.7634  140.8413  170.0444 N.am    1  UNL1       -0.2992
     20 C         139.5215  140.3034  169.3977 C.2     1  UNL1        0.2459
     21 O         138.3540  139.8899  170.2439 O.2     1  UNL1       -0.2701
     22 H         141.5296  141.1128  169.4890 H       1  UNL1        0.1498
     23 C         140.0733  138.7145  156.6926 C.3     1  UNL1        0.1110
     24 C         140.4954  137.4397  156.0242 C.3     1  UNL1        0.0938
     25 N         141.9496  137.1705  155.7727 N.3     1  UNL1       -0.2725
     26 C         143.0210  138.2062  155.6013 C.3     1  UNL1        0.0721
     27 C         144.3212  137.4942  155.3712 C.3     1  UNL1        0.0187
     28 C         144.0531  136.0186  155.4004 C.3     1  UNL1        0.0174
     29 C         142.5874  135.8186  155.6486 C.3     1  UNL1        0.0576
     30 C         141.8831  134.4985  155.7541 C.3     1  UNL1        0.0173
@<TRIPOS>BOND
     1    18    19    1
     2    19    20   am
     3    20    21    2
     4    20    12    1
     5    12    13   ar
     6    13    14   ar
     7    14    15   ar
     8    15     1    1
     9     1     2   ar
    10     2     3   ar
    11     3     4   ar
    12     4     5   ar
    13     5     6   ar
    14     5     7    1
    15     7     8    1
    16     8     9    1
    17     9    23    1
    18    23    24    1
    19    24    25    1
    20    25    26    1
    21    26    27    1
    22    27    28    1
    23    28    29    1
    24    29    30    1
    25     9    10   am
    26    10    11    2
    27    15    16   ar
    28    16    17   ar
    29    17    12   ar
    30     6     1   ar
    31    29    25    1
    32    10     4    1
    33    19    22    1
@<TRIPOS>MOLECULE
*****
 30 33 0 0 0
SMALL
GASTEIGER

@<TRIPOS>ATOM
      1 C         139.2349  139.8172  163.0939 C.ar    1  UNL1       -0.0003
      2 C         139.5459  138.5207  162.4067 C.ar    1  UNL1        0.0001
      3 C         139.4808  138.4303  160.9108 C.ar    1  UNL1        0.0042
      4 C         139.1049  139.6365  160.1022 C.ar    1  UNL1        0.0497
      5 C         138.7940  140.9330  160.7895 C.ar    1  UNL1       -0.0161
      6 C         138.8590  141.0234  162.2853 C.ar    1  UNL1       -0.0041
      7 C         138.4181  142.1392  159.9808 C.3     1  UNL1        0.0480
      8 C         138.3530  142.0488  158.4850 C.3     1  UNL1        0.0984
      9 N         138.6640  140.7523  157.7977 N.am    1  UNL1       -0.2743
     10 C         139.0399  139.5461  158.6063 C.2     1  UNL1        0.2488
     11 O         139.3508  138.2496  157.9191 O.2     1  UNL1       -0.2699
     12 C         139.4300  140.0885  167.5815 C.ar    1  UNL1        0.0534
     13 C         138.4184  139.1947  166.9275 C.ar    1  UNL1        0.0045
     14 C         138.3534  139.1043  165.4316 C.ar    1  UNL1        0.0001
     15 C         139.3000  139.9076  164.5898 C.ar    1  UNL1       -0.0000
     16 C         140.3116  140.8014  165.2439 C.ar    1  UNL1        0.0001
     17 C         140.3766  140.8918  166.7397 C.ar    1  UNL1        0.0045
     18 C         140.8057  140.7725  171.2407 C.3     1  UNL1        0.1109
     19 N         140.7406  140.6820  169.7448 N.am    1  UNL1       -0.2992
     20 C         139.4951  140.1789  169.0774 C.2     1  UNL1        0.2459
     21 O         138.3146  139.7662  169.9057 O.2     1  UNL1       -0.2701
     22 H         141.5153  140.9529  169.2011 H       1  UNL1        0.1498
     23 C         138.5989  140.6619  156.3019 C.3     1  UNL1        0.1110
     24 C         137.7439  141.6218  155.5290 C.3     1  UNL1        0.0938
     25 N         136.2962  141.3108  155.2886 N.3     1  UNL1       -0.2725
     26 C         135.3687  140.6315  156.2522 C.3     1  UNL1        0.0721
     27 C         134.0212  140.5253  155.6017 C.3     1  UNL1        0.0187
     28 C         134.1160  141.1390  154.2362 C.3     1  UNL1        0.0174
     29 C         135.5221  141.6244  154.0428 C.3     1  UNL1        0.0576
     30 C         136.0596  142.3041  152.8184 C.3     1  UNL1        0.0173
@<TRIPOS>BOND
     1    18    19    1
     2    19    20   am
     3    20    21    2
     4    20    12    1
     5    12    13   ar
     6    13    14   ar
     7    14    15   ar
     8    15     1    1
     9     1     2   ar
    10     2     3   ar
    11     3     4   ar
    12     4     5   ar
    13     5     6   ar
    14     5     7    1
    15     7     8    1
    16     8     9    1
    17     9    23    1
    18    23    24    1
    19    24    25    1
    20    25    26    1
    21    26    27    1
    22    27    28    1
    23    28    29    1
    24    29    30    1
    25     9    10   am
    26    10    11    2
    27    15    16   ar
    28    16    17   ar
    29    17    12   ar
    30     6     1   ar
    31    29    25    1
    32    10     4    1
    33    19    22    1
@<TRIPOS>MOLECULE
*****
 30 33 0 0 0
SMALL
GASTEIGER

@<TRIPOS>ATOM
      1 C         141.9509  143.8439  160.3232 C.ar    1  UNL1       -0.0003
      2 C         143.1405  142.9314  160.3705 C.ar    1  UNL1        0.0001
      3 C         143.4854  142.2142  161.6420 C.ar    1  UNL1        0.0042
      4 C         142.6408  142.4096  162.8661 C.ar    1  UNL1        0.0497
      5 C         141.4513  143.3221  162.8188 C.ar    1  UNL1       -0.0161
      6 C         141.1063  144.0392  161.5473 C.ar    1  UNL1       -0.0041
      7 C         140.6067  143.5175  164.0429 C.3     1  UNL1        0.0480
      8 C         140.9517  142.8004  165.3144 C.3     1  UNL1        0.0984
      9 N         142.1413  141.8878  165.3618 N.am    1  UNL1       -0.2743
     10 C         142.9859  141.6924  164.1376 C.2     1  UNL1        0.2488
     11 O         144.1754  140.7799  164.1849 O.2     1  UNL1       -0.2699
     12 C         140.9159  145.9954  156.5087 C.ar    1  UNL1        0.0534
     13 C         140.0359  146.1414  157.7146 C.ar    1  UNL1        0.0045
     14 C         140.3809  145.4242  158.9861 C.ar    1  UNL1        0.0001
     15 C         141.6059  144.5611  159.0516 C.ar    1  UNL1       -0.0000
     16 C         142.4859  144.4150  157.8457 C.ar    1  UNL1        0.0001
     17 C         142.1410  145.1322  156.5743 C.ar    1  UNL1        0.0045
     18 C         139.7259  148.8431  154.0138 C.3     1  UNL1        0.1109
     19 N         140.0709  148.1258  155.2853 N.am    1  UNL1       -0.2992
     20 C         140.5710  146.7125  155.2372 C.2     1  UNL1        0.2459
     21 O         140.7260  146.0163  153.9176 O.2     1  UNL1       -0.2701
     22 H         139.9691  148.5828  156.1514 H       1  UNL1        0.1498
     23 C         142.4863  141.1707  166.6332 C.3     1  UNL1        0.1110
     24 C         141.7677  139.9060  166.9997 C.3     1  UNL1        0.0938
     25 N         141.2560  138.9952  165.9232 N.3     1  UNL1       -0.2725
     26 C         142.0774  138.0301  165.1209 C.3     1  UNL1        0.0721
     27 C         141.1622  137.3281  164.1618 C.3     1  UNL1        0.0187
     28 C         139.7752  137.8595  164.3715 C.3     1  UNL1        0.0174
     29 C         139.8332  138.8898  165.4601 C.3     1  UNL1        0.0576
     30 C         138.6723  139.6766  165.9922 C.3     1  UNL1        0.0173
@<TRIPOS>BOND
     1    18    19    1
     2    19    20   am
     3    20    21    2
     4    20    12    1
     5    12    13   ar
     6    13    14   ar
     7    14    15   ar
     8    15     1    1
     9     1     2   ar
    10     2     3   ar
    11     3     4   ar
    12     4     5   ar
    13     5     6   ar
    14     5     7    1
    15     7     8    1
    16     8     9    1
    17     9    23    1
    18    23    24    1
    19    24    25    1
    20    25    26    1
    21    26    27    1
    22    27    28    1
    23    28    29    1
    24    29    30    1
    25     9    10   am
    26    10    11    2
    27    15    16   ar
    28    16    17   ar
    29    17    12   ar
    30     6     1   ar
    31    29    25    1
    32    10     4    1
    33    19    22    1
@<TRIPOS>MOLECULE
*****
 30 33 0 0 0
SMALL
GASTEIGER

@<TRIPOS>ATOM
      1 C         138.9700  140.8447  163.5049 C.ar    1  UNL1       -0.0003
      2 C         137.9767  139.9306  162.8509 C.ar    1  UNL1        0.0001
      3 C         137.7381  140.0169  161.3725 C.ar    1  UNL1        0.0042
      4 C         138.4928  141.0173  160.5482 C.ar    1  UNL1        0.0497
      5 C         139.4861  141.9314  161.2021 C.ar    1  UNL1       -0.0161
      6 C         139.7247  141.8451  162.6805 C.ar    1  UNL1       -0.0041
      7 C         140.2409  142.9318  160.3778 C.3     1  UNL1        0.0480
      8 C         140.0023  143.0181  158.8994 C.3     1  UNL1        0.0984
      9 N         139.0089  142.1040  158.2454 N.am    1  UNL1       -0.2743
     10 C         138.2542  141.1036  159.0697 C.2     1  UNL1        0.2488
     11 O         137.2609  140.1895  158.4157 O.2     1  UNL1       -0.2699
     12 C         139.6859  140.5858  167.9401 C.ar    1  UNL1        0.0534
     13 C         140.2488  141.7334  167.1553 C.ar    1  UNL1        0.0045
     14 C         140.0102  141.8197  165.6768 C.ar    1  UNL1        0.0001
     15 C         139.2086  140.7584  164.9833 C.ar    1  UNL1       -0.0000
     16 C         138.6456  139.6107  165.7681 C.ar    1  UNL1        0.0001
     17 C         138.8842  139.5244  167.2465 C.ar    1  UNL1        0.0045
     18 C         141.4602  140.8942  171.4765 C.3     1  UNL1        0.1109
     19 N         141.2215  140.9806  169.9981 N.am    1  UNL1       -0.2992
     20 C         139.9244  140.4994  169.4184 C.2     1  UNL1        0.2459
     21 O         138.8660  139.9320  170.3171 O.2     1  UNL1       -0.2701
     22 H         141.9162  141.3530  169.4083 H       1  UNL1        0.1498
     23 C         138.7703  142.1903  156.7670 C.3     1  UNL1        0.1110
     24 C         139.6691  143.0318  155.9101 C.3     1  UNL1        0.0938
     25 N         139.4108  144.5029  155.7710 N.3     1  UNL1       -0.2725
     26 C         140.2702  145.6043  156.3171 C.3     1  UNL1        0.0721
     27 C         139.6384  146.9130  155.9449 C.3     1  UNL1        0.0187
     28 C         138.3886  146.6202  155.1689 C.3     1  UNL1        0.0174
     29 C         138.2479  145.1307  155.0614 C.3     1  UNL1        0.0576
     30 C         137.1391  144.3976  154.3664 C.3     1  UNL1        0.0173
@<TRIPOS>BOND
     1    18    19    1
     2    19    20   am
     3    20    21    2
     4    20    12    1
     5    12    13   ar
     6    13    14   ar
     7    14    15   ar
     8    15     1    1
     9     1     2   ar
    10     2     3   ar
    11     3     4   ar
    12     4     5   ar
    13     5     6   ar
    14     5     7    1
    15     7     8    1
    16     8     9    1
    17     9    23    1
    18    23    24    1
    19    24    25    1
    20    25    26    1
    21    26    27    1
    22    27    28    1
    23    28    29    1
    24    29    30    1
    25     9    10   am
    26    10    11    2
    27    15    16   ar
    28    16    17   ar
    29    17    12   ar
    30     6     1   ar
    31    29    25    1
    32    10     4    1
    33    19    22    1
@<TRIPOS>MOLECULE
*****
 30 33 0 0 0
SMALL
GASTEIGER

@<TRIPOS>ATOM
      1 C         138.8842  140.8982  163.4316 C.ar    1  UNL1       -0.0003
      2 C         138.0641  139.8408  162.7540 C.ar    1  UNL1        0.0001
      3 C         137.7894  139.9331  161.2823 C.ar    1  UNL1        0.0042
      4 C         138.3349  141.0828  160.4882 C.ar    1  UNL1        0.0497
      5 C         139.1551  142.1402  161.1658 C.ar    1  UNL1       -0.0161
      6 C         139.4297  142.0479  162.6375 C.ar    1  UNL1       -0.0041
      7 C         139.7006  143.2899  160.3716 C.3     1  UNL1        0.0480
      8 C         139.4259  143.3822  158.8999 C.3     1  UNL1        0.0984
      9 N         138.6057  142.3247  158.2222 N.am    1  UNL1       -0.2743
     10 C         138.0602  141.1750  159.0164 C.2     1  UNL1        0.2488
     11 O         137.2401  140.1176  158.3388 O.2     1  UNL1       -0.2699
     12 C         139.7083  140.6214  167.8469 C.ar    1  UNL1        0.0534
     13 C         140.2486  141.7744  167.0540 C.ar    1  UNL1        0.0045
     14 C         139.9739  141.8666  165.5822 C.ar    1  UNL1        0.0001
     15 C         139.1589  140.8059  164.9034 C.ar    1  UNL1       -0.0000
     16 C         138.6187  139.6530  165.6963 C.ar    1  UNL1        0.0001
     17 C         138.8933  139.5607  167.1680 C.ar    1  UNL1        0.0045
     18 C         141.5694  140.9136  171.3399 C.3     1  UNL1        0.1109
     19 N         141.2947  141.0059  169.8681 N.am    1  UNL1       -0.2992
     20 C         139.9830  140.5291  169.3186 C.2     1  UNL1        0.2459
     21 O         138.9459  139.9600  170.2409 O.2     1  UNL1       -0.2701
     22 H         141.9754  141.3794  169.2627 H       1  UNL1        0.1498
     23 C         138.3310  142.4170  156.7505 C.3     1  UNL1        0.1110
     24 C         137.2101  143.2786  156.2493 C.3     1  UNL1        0.0938
     25 N         136.5647  142.9768  154.9293 N.3     1  UNL1       -0.2725
     26 C         136.8211  143.6953  153.6378 C.3     1  UNL1        0.0721
     27 C         135.9644  143.0660  152.5793 C.3     1  UNL1        0.0187
     28 C         135.1786  141.9587  153.2168 C.3     1  UNL1        0.0174
     29 C         135.5496  141.9035  154.6692 C.3     1  UNL1        0.0576
     30 C         135.0018  140.9437  155.6833 C.3     1  UNL1        0.0173
@<TRIPOS>BOND
     1    18    19    1
     2    19    20   am
     3    20    21    2
     4    20    12    1
     5    12    13   ar
     6    13    14   ar
     7    14    15   ar
     8    15     1    1
     9     1     2   ar
    10     2     3   ar
    11     3     4   ar
    12     4     5   ar
    13     5     6   ar
    14     5     7    1
    15     7     8    1
    16     8     9    1
    17     9    23    1
    18    23    24    1
    19    24    25    1
    20    25    26    1
    21    26    27    1
    22    27    28    1
    23    28    29    1
    24    29    30    1
    25     9    10   am
    26    10    11    2
    27    15    16   ar
    28    16    17   ar
    29    17    12   ar
    30     6     1   ar
    31    29    25    1
    32    10     4    1
    33    19    22    1
@<TRIPOS>MOLECULE
*****
 30 33 0 0 0
SMALL
GASTEIGER

@<TRIPOS>ATOM
      1 C         142.9129  136.7620  156.9421 C.ar    1  UNL1       -0.0003
      2 C         143.4226  137.6864  155.8765 C.ar    1  UNL1        0.0001
      3 C         143.6124  139.1439  156.1760 C.ar    1  UNL1        0.0042
      4 C         143.2924  139.6769  157.5411 C.ar    1  UNL1        0.0497
      5 C         142.7827  138.7525  158.6067 C.ar    1  UNL1       -0.0161
      6 C         142.5929  137.2950  158.3072 C.ar    1  UNL1       -0.0041
      7 C         142.4627  139.2855  159.9718 C.3     1  UNL1        0.0480
      8 C         142.6524  140.7430  160.2712 C.3     1  UNL1        0.0984
      9 N         143.1622  141.6675  159.2056 N.am    1  UNL1       -0.2743
     10 C         143.4822  141.1345  157.8405 C.2     1  UNL1        0.2488
     11 O         143.9919  142.0589  156.7749 O.2     1  UNL1       -0.2699
     12 C         142.3436  132.3894  156.0438 C.ar    1  UNL1        0.0534
     13 C         141.5490  133.4184  155.2956 C.ar    1  UNL1        0.0045
     14 C         141.7388  134.8760  155.5951 C.ar    1  UNL1        0.0001
     15 C         142.7231  135.3044  156.6426 C.ar    1  UNL1       -0.0000
     16 C         143.5177  134.2754  157.3908 C.ar    1  UNL1        0.0001
     17 C         143.3280  132.8179  157.0914 C.ar    1  UNL1        0.0045
     18 C         142.7935  128.4480  156.1583 C.3     1  UNL1        0.1109
     19 N         142.9832  129.9056  156.4577 N.am    1  UNL1       -0.2992
     20 C         142.1538  130.9319  155.7444 C.2     1  UNL1        0.2459
     21 O         141.1347  130.5007  154.7317 O.2     1  UNL1       -0.2701
     22 H         143.6521  130.1886  157.1223 H       1  UNL1        0.1498
     23 C         143.3520  143.1250  159.5051 C.3     1  UNL1        0.1110
     24 C         142.3050  143.8752  160.2739 C.3     1  UNL1        0.0938
     25 N         142.5886  144.3372  161.6726 N.3     1  UNL1       -0.2725
     26 C         143.8578  144.1047  162.4375 C.3     1  UNL1        0.0721
     27 C         143.7064  144.7365  163.7896 C.3     1  UNL1        0.0187
     28 C         142.3437  145.3595  163.8601 C.3     1  UNL1        0.0174
     29 C         141.6529  145.1127  162.5517 C.3     1  UNL1        0.0576
     30 C         140.2693  145.5624  162.1866 C.3     1  UNL1        0.0173
@<TRIPOS>BOND
     1    18    19    1
     2    19    20   am
     3    20    21    2
     4    20    12    1
     5    12    13   ar
     6    13    14   ar
     7    14    15   ar
     8    15     1    1
     9     1     2   ar
    10     2     3   ar
    11     3     4   ar
    12     4     5   ar
    13     5     6   ar
    14     5     7    1
    15     7     8    1
    16     8     9    1
    17     9    23    1
    18    23    24    1
    19    24    25    1
    20    25    26    1
    21    26    27    1
    22    27    28    1
    23    28    29    1
    24    29    30    1
    25     9    10   am
    26    10    11    2
    27    15    16   ar
    28    16    17   ar
    29    17    12   ar
    30     6     1   ar
    31    29    25    1
    32    10     4    1
    33    19    22    1
