@<TRIPOS>MOLECULE
*****
 20 21 0 0 0
SMALL
GASTEIGER

@<TRIPOS>ATOM
      1 C         139.3028  143.7673  164.1920 C.ar    1  UNL1        0.0282
      2 C         139.5951  145.0426  163.4586 C.ar    1  UNL1        0.0010
      3 C         141.0151  145.4463  163.1927 C.ar    1  UNL1        0.0113
      4 C         142.1427  144.5746  163.6602 C.ar    1  UNL1        0.0607
      5 CL        143.5627  144.9783  163.3942 Cl      1  UNL1       -0.0821
      6 C         141.8503  143.2992  164.3936 C.ar    1  UNL1        0.0486
      7 C         140.4304  142.8956  164.6595 C.ar    1  UNL1        0.1434
      8 C         137.8828  143.3636  164.4579 C.3     1  UNL1        0.0987
      9 C         137.4462  141.2748  162.9760 C.3     1  UNL1        0.0861
     10 N         137.4746  141.9262  164.3269 N.3     1  UNL1       -0.2925
     11 H         138.1189  141.3835  164.9020 H       1  UNL1        0.1236
     12 O         140.1380  141.6202  165.3930 O.3     1  UNL1       -0.4537
     13 C         140.2076  141.5835  166.8909 C.ar    1  UNL1        0.1463
     14 C         140.1345  140.2709  167.6133 C.ar    1  UNL1        0.0399
     15 C         140.2041  140.2343  169.1112 C.ar    1  UNL1        0.0336
     16 C         140.3468  141.5103  169.8868 C.ar    1  UNL1        0.1508
     17 F         140.4163  141.4737  171.3847 F       1  UNL1       -0.2033
     18 C         140.4199  142.8228  169.1645 C.ar    1  UNL1        0.0881
     19 CL        140.5625  144.0988  169.9401 Cl      1  UNL1       -0.0798
     20 C         140.3503  142.8595  167.6665 C.ar    1  UNL1        0.0511
@<TRIPOS>BOND
     1     9    10    1
     2    10     8    1
     3     8     1    1
     4     1     2   ar
     5     2     3   ar
     6     3     4   ar
     7     4     5    1
     8     4     6   ar
     9     6     7   ar
    10     7    12    1
    11    12    13    1
    12    13    14   ar
    13    14    15   ar
    14    15    16   ar
    15    16    17    1
    16    16    18   ar
    17    18    19    1
    18    18    20   ar
    19     7     1   ar
    20    20    13   ar
    21    10    11    1
@<TRIPOS>MOLECULE
*****
 20 21 0 0 0
SMALL
GASTEIGER

@<TRIPOS>ATOM
      1 C         138.7354  142.6930  164.1665 C.ar    1  UNL1        0.0282
      2 C         138.4982  144.1239  163.7844 C.ar    1  UNL1        0.0010
      3 C         139.6557  145.0708  163.6675 C.ar    1  UNL1        0.0113
      4 C         141.0504  144.5867  163.9325 C.ar    1  UNL1        0.0607
      5 CL        142.2079  145.5335  163.8155 Cl      1  UNL1       -0.0821
      6 C         141.2876  143.1557  164.3145 C.ar    1  UNL1        0.0486
      7 C         140.1301  142.2088  164.4315 C.ar    1  UNL1        0.1434
      8 C         137.5779  141.7461  164.2834 C.3     1  UNL1        0.0987
      9 C         137.6738  140.8493  161.8469 C.3     1  UNL1        0.0861
     10 N         136.8769  141.2624  163.0487 N.3     1  UNL1       -0.2925
     11 H         136.3193  140.4540  163.3243 H       1  UNL1        0.1236
     12 O         140.3674  140.7778  164.8136 O.3     1  UNL1       -0.4537
     13 C         140.7183  140.4278  166.2293 C.ar    1  UNL1        0.1463
     14 C         142.0962  139.9363  166.5609 C.ar    1  UNL1        0.0399
     15 C         142.4471  139.5863  167.9766 C.ar    1  UNL1        0.0336
     16 C         141.4202  139.7277  169.0608 C.ar    1  UNL1        0.1508
     17 F         141.7711  139.3777  170.4765 F       1  UNL1       -0.2033
     18 C         140.0423  140.2191  168.7292 C.ar    1  UNL1        0.0881
     19 CL        139.0154  140.3605  169.8133 Cl      1  UNL1       -0.0798
     20 C         139.6914  140.5692  167.3134 C.ar    1  UNL1        0.0511
@<TRIPOS>BOND
     1     9    10    1
     2    10     8    1
     3     8     1    1
     4     1     2   ar
     5     2     3   ar
     6     3     4   ar
     7     4     5    1
     8     4     6   ar
     9     6     7   ar
    10     7    12    1
    11    12    13    1
    12    13    14   ar
    13    14    15   ar
    14    15    16   ar
    15    16    17    1
    16    16    18   ar
    17    18    19    1
    18    18    20   ar
    19     7     1   ar
    20    20    13   ar
    21    10    11    1
@<TRIPOS>MOLECULE
*****
 20 21 0 0 0
SMALL
GASTEIGER

@<TRIPOS>ATOM
      1 C         143.6121  143.5003  164.4949 C.ar    1  UNL1        0.0282
      2 C         143.3202  144.8625  163.9390 C.ar    1  UNL1        0.0010
      3 C         141.9018  145.3356  163.8194 C.ar    1  UNL1        0.0113
      4 C         140.7753  144.4465  164.2557 C.ar    1  UNL1        0.0607
      5 CL        139.3569  144.9196  164.1361 Cl      1  UNL1       -0.0821
      6 C         141.0672  143.0843  164.8116 C.ar    1  UNL1        0.0486
      7 C         142.4856  142.6112  164.9312 C.ar    1  UNL1        0.1434
      8 C         145.0305  143.0272  164.6145 C.3     1  UNL1        0.0987
      9 C         145.1140  141.4993  162.5148 C.3     1  UNL1        0.0861
     10 N         145.4526  141.7479  163.9548 N.3     1  UNL1       -0.2925
     11 H         146.4685  141.6984  164.0313 H       1  UNL1        0.1236
     12 O         142.7775  141.2489  165.4871 O.3     1  UNL1       -0.4537
     13 C         142.7338  141.0182  166.9686 C.ar    1  UNL1        0.1463
     14 C         142.5014  139.6372  167.5062 C.ar    1  UNL1        0.0399
     15 C         142.4578  139.4066  168.9876 C.ar    1  UNL1        0.0336
     16 C         142.6465  140.5569  169.9316 C.ar    1  UNL1        0.1508
     17 F         142.6029  140.3263  171.4131 F       1  UNL1       -0.2033
     18 C         142.8789  141.9379  169.3942 C.ar    1  UNL1        0.0881
     19 CL        143.0677  143.0882  170.3382 Cl      1  UNL1       -0.0798
     20 C         142.9226  142.1686  167.9126 C.ar    1  UNL1        0.0511
@<TRIPOS>BOND
     1     9    10    1
     2    10     8    1
     3     8     1    1
     4     1     2   ar
     5     2     3   ar
     6     3     4   ar
     7     4     5    1
     8     4     6   ar
     9     6     7   ar
    10     7    12    1
    11    12    13    1
    12    13    14   ar
    13    14    15   ar
    14    15    16   ar
    15    16    17    1
    16    16    18   ar
    17    18    19    1
    18    18    20   ar
    19     7     1   ar
    20    20    13   ar
    21    10    11    1
@<TRIPOS>MOLECULE
*****
 20 21 0 0 0
SMALL
GASTEIGER

@<TRIPOS>ATOM
      1 C         140.5846  139.2402  164.4740 C.ar    1  UNL1        0.0282
      2 C         139.9027  137.9118  164.3312 C.ar    1  UNL1        0.0010
      3 C         138.7852  137.5388  165.2595 C.ar    1  UNL1        0.0113
      4 C         138.3494  138.4941  166.3307 C.ar    1  UNL1        0.0607
      5 CL        137.2318  138.1210  167.2591 Cl      1  UNL1       -0.0821
      6 C         139.0313  139.8224  166.4736 C.ar    1  UNL1        0.0486
      7 C         140.1489  140.1955  165.5452 C.ar    1  UNL1        0.1434
      8 C         141.7022  139.6133  163.5457 C.3     1  UNL1        0.0987
      9 C         143.9058  139.1724  164.8492 C.3     1  UNL1        0.0861
     10 N         143.0045  140.1090  164.1008 N.3     1  UNL1       -0.2925
     11 H         143.5427  140.4687  163.3126 H       1  UNL1        0.1236
     12 O         140.8307  141.5240  165.6881 O.3     1  UNL1       -0.4537
     13 C         141.3568  141.9571  167.0243 C.ar    1  UNL1        0.1463
     14 C         142.7170  141.5131  167.4747 C.ar    1  UNL1        0.0399
     15 C         143.2430  141.9463  168.8110 C.ar    1  UNL1        0.0336
     16 C         142.4089  142.8234  169.6969 C.ar    1  UNL1        0.1508
     17 F         142.9350  143.2566  171.0332 F       1  UNL1       -0.2033
     18 C         141.0488  143.2674  169.2466 C.ar    1  UNL1        0.0881
     19 CL        140.2147  144.1446  170.1325 Cl      1  UNL1       -0.0798
     20 C         140.5227  142.8343  167.9103 C.ar    1  UNL1        0.0511
@<TRIPOS>BOND
     1     9    10    1
     2    10     8    1
     3     8     1    1
     4     1     2   ar
     5     2     3   ar
     6     3     4   ar
     7     4     5    1
     8     4     6   ar
     9     6     7   ar
    10     7    12    1
    11    12    13    1
    12    13    14   ar
    13    14    15   ar
    14    15    16   ar
    15    16    17    1
    16    16    18   ar
    17    18    19    1
    18    18    20   ar
    19     7     1   ar
    20    20    13   ar
    21    10    11    1
@<TRIPOS>MOLECULE
*****
 20 21 0 0 0
SMALL
GASTEIGER

@<TRIPOS>ATOM
      1 C         141.5571  144.0312  163.6156 C.ar    1  UNL1        0.0282
      2 C         142.7909  144.7122  163.1020 C.ar    1  UNL1        0.0010
      3 C         144.1296  144.0527  163.2531 C.ar    1  UNL1        0.0113
      4 C         144.2345  142.7121  163.9177 C.ar    1  UNL1        0.0607
      5 CL        145.5732  142.0526  164.0688 Cl      1  UNL1       -0.0821
      6 C         143.0007  142.0311  164.4313 C.ar    1  UNL1        0.0486
      7 C         141.6620  142.6906  164.2802 C.ar    1  UNL1        0.1434
      8 C         140.2184  144.6908  163.4645 C.3     1  UNL1        0.0987
      9 C         138.0676  144.5090  164.9105 C.3     1  UNL1        0.0861
     10 N         139.4341  145.0834  164.6813 N.3     1  UNL1       -0.2925
     11 H         140.0000  144.8292  165.4910 H       1  UNL1        0.1236
     12 O         140.4281  142.0095  164.7938 O.3     1  UNL1       -0.4537
     13 C         140.2765  141.7390  166.2614 C.ar    1  UNL1        0.1463
     14 C         139.8582  140.3782  166.7339 C.ar    1  UNL1        0.0399
     15 C         139.7067  140.1077  168.2015 C.ar    1  UNL1        0.0336
     16 C         139.9733  141.1980  169.1966 C.ar    1  UNL1        0.1508
     17 F         139.8217  140.9275  170.6642 F       1  UNL1       -0.2033
     18 C         140.3916  142.5587  168.7241 C.ar    1  UNL1        0.0881
     19 CL        140.6582  143.6490  169.7192 Cl      1  UNL1       -0.0798
     20 C         140.5432  142.8293  167.2565 C.ar    1  UNL1        0.0511
@<TRIPOS>BOND
     1     9    10    1
     2    10     8    1
     3     8     1    1
     4     1     2   ar
     5     2     3   ar
     6     3     4   ar
     7     4     5    1
     8     4     6   ar
     9     6     7   ar
    10     7    12    1
    11    12    13    1
    12    13    14   ar
    13    14    15   ar
    14    15    16   ar
    15    16    17    1
    16    16    18   ar
    17    18    19    1
    18    18    20   ar
    19     7     1   ar
    20    20    13   ar
    21    10    11    1
@<TRIPOS>MOLECULE
*****
 20 21 0 0 0
SMALL
GASTEIGER

@<TRIPOS>ATOM
      1 C         138.0612  139.7944  162.5766 C.ar    1  UNL1        0.0282
      2 C         137.8321  140.8170  161.5034 C.ar    1  UNL1        0.0010
      3 C         137.7471  142.2717  161.8594 C.ar    1  UNL1        0.0113
      4 C         137.8911  142.7037  163.2886 C.ar    1  UNL1        0.0607
      5 CL        137.8061  144.1584  163.6446 Cl      1  UNL1       -0.0821
      6 C         138.1202  141.6811  164.3618 C.ar    1  UNL1        0.0486
      7 C         138.2052  140.2264  164.0058 C.ar    1  UNL1        0.1434
      8 C         138.1462  138.3397  162.2206 C.3     1  UNL1        0.0987
      9 C         140.7074  137.9384  162.0508 C.3     1  UNL1        0.0861
     10 N         139.3642  137.5468  162.5915 N.3     1  UNL1       -0.2925
     11 H         139.4362  137.5761  163.6085 H       1  UNL1        0.1236
     12 O         138.4342  139.2038  165.0790 O.3     1  UNL1       -0.4537
     13 C         139.5726  139.3690  166.0417 C.ar    1  UNL1        0.1463
     14 C         139.3144  139.8814  167.4277 C.ar    1  UNL1        0.0399
     15 C         140.4527  140.0466  168.3904 C.ar    1  UNL1        0.0336
     16 C         141.8493  139.6994  167.9672 C.ar    1  UNL1        0.1508
     17 F         142.9876  139.8646  168.9299 F       1  UNL1       -0.2033
     18 C         142.1075  139.1870  166.5814 C.ar    1  UNL1        0.0881
     19 CL        143.5041  138.8398  166.1582 Cl      1  UNL1       -0.0798
     20 C         140.9691  139.0218  165.6186 C.ar    1  UNL1        0.0511
@<TRIPOS>BOND
     1     9    10    1
     2    10     8    1
     3     8     1    1
     4     1     2   ar
     5     2     3   ar
     6     3     4   ar
     7     4     5    1
     8     4     6   ar
     9     6     7   ar
    10     7    12    1
    11    12    13    1
    12    13    14   ar
    13    14    15   ar
    14    15    16   ar
    15    16    17    1
    16    16    18   ar
    17    18    19    1
    18    18    20   ar
    19     7     1   ar
    20    20    13   ar
    21    10    11    1
@<TRIPOS>MOLECULE
*****
 20 21 0 0 0
SMALL
GASTEIGER

@<TRIPOS>ATOM
      1 C         140.0165  144.5788  163.3889 C.ar    1  UNL1        0.0282
      2 C         141.2276  145.2807  162.8498 C.ar    1  UNL1        0.0010
      3 C         142.5893  144.9400  163.3786 C.ar    1  UNL1        0.0113
      4 C         142.7400  143.8975  164.4464 C.ar    1  UNL1        0.0607
      5 CL        144.1017  143.5568  164.9752 Cl      1  UNL1       -0.0821
      6 C         141.5289  143.1956  164.9855 C.ar    1  UNL1        0.0486
      7 C         140.1672  143.5363  164.4568 C.ar    1  UNL1        0.1434
      8 C         138.6548  144.9195  162.8602 C.3     1  UNL1        0.0987
      9 C         138.2621  142.9013  161.2719 C.3     1  UNL1        0.0861
     10 N         137.7618  143.8354  162.3336 N.3     1  UNL1       -0.2925
     11 H         137.4966  143.2587  163.1321 H       1  UNL1        0.1236
     12 O         138.9561  142.8344  164.9959 O.3     1  UNL1       -0.4537
     13 C         138.9413  141.3382  165.1016 C.ar    1  UNL1        0.1463
     14 C         139.1933  140.6772  166.4244 C.ar    1  UNL1        0.0399
     15 C         139.1786  139.1811  166.5300 C.ar    1  UNL1        0.0336
     16 C         138.9118  138.3458  165.3130 C.ar    1  UNL1        0.1508
     17 F         138.8970  136.8497  165.4187 F       1  UNL1       -0.2033
     18 C         138.6597  139.0067  163.9903 C.ar    1  UNL1        0.0881
     19 CL        138.3929  138.1715  162.7733 Cl      1  UNL1       -0.0798
     20 C         138.6745  140.5030  163.8846 C.ar    1  UNL1        0.0511
@<TRIPOS>BOND
     1     9    10    1
     2    10     8    1
     3     8     1    1
     4     1     2   ar
     5     2     3   ar
     6     3     4   ar
     7     4     5    1
     8     4     6   ar
     9     6     7   ar
    10     7    12    1
    11    12    13    1
    12    13    14   ar
    13    14    15   ar
    14    15    16   ar
    15    16    17    1
    16    16    18   ar
    17    18    19    1
    18    18    20   ar
    19     7     1   ar
    20    20    13   ar
    21    10    11    1
@<TRIPOS>MOLECULE
*****
 20 21 0 0 0
SMALL
GASTEIGER

@<TRIPOS>ATOM
      1 C         141.6058  139.5638  166.4653 C.ar    1  UNL1        0.0282
      2 C         142.5726  139.6361  167.6099 C.ar    1  UNL1        0.0010
      3 C         142.0672  139.8480  169.0063 C.ar    1  UNL1        0.0113
      4 C         140.5952  139.9874  169.2580 C.ar    1  UNL1        0.0607
      5 CL        140.0898  140.1993  170.6544 Cl      1  UNL1       -0.0821
      6 C         139.6284  139.9151  168.1134 C.ar    1  UNL1        0.0486
      7 C         140.1337  139.7033  166.7171 C.ar    1  UNL1        0.1434
      8 C         142.1112  139.3520  165.0690 C.3     1  UNL1        0.0987
      9 C         141.2014  137.0722  164.2177 C.3     1  UNL1        0.0861
     10 N         141.2955  138.5636  164.0877 N.3     1  UNL1       -0.2925
     11 H         140.3428  138.9243  164.1397 H       1  UNL1        0.1236
     12 O         139.1669  139.6309  165.5725 O.3     1  UNL1       -0.4537
     13 C         138.7155  140.8888  164.8914 C.ar    1  UNL1        0.1463
     14 C         137.8338  140.8110  163.6803 C.ar    1  UNL1        0.0399
     15 C         137.3825  142.0689  162.9992 C.ar    1  UNL1        0.0336
     16 C         137.8127  143.4046  163.5291 C.ar    1  UNL1        0.1508
     17 F         137.3613  144.6625  162.8480 F       1  UNL1       -0.2033
     18 C         138.6943  143.4824  164.7401 C.ar    1  UNL1        0.0881
     19 CL        139.1246  144.8181  165.2700 Cl      1  UNL1       -0.0798
     20 C         139.1458  142.2245  165.4213 C.ar    1  UNL1        0.0511
@<TRIPOS>BOND
     1     9    10    1
     2    10     8    1
     3     8     1    1
     4     1     2   ar
     5     2     3   ar
     6     3     4   ar
     7     4     5    1
     8     4     6   ar
     9     6     7   ar
    10     7    12    1
    11    12    13    1
    12    13    14   ar
    13    14    15   ar
    14    15    16   ar
    15    16    17    1
    16    16    18   ar
    17    18    19    1
    18    18    20   ar
    19     7     1   ar
    20    20    13   ar
    21    10    11    1
@<TRIPOS>MOLECULE
*****
 20 21 0 0 0
SMALL
GASTEIGER

@<TRIPOS>ATOM
      1 C         140.4805  140.4640  167.1830 C.ar    1  UNL1        0.0282
      2 C         139.6801  139.9401  168.3383 C.ar    1  UNL1        0.0010
      3 C         139.4252  140.8130  169.5313 C.ar    1  UNL1        0.0113
      4 C         139.9708  142.2097  169.5689 C.ar    1  UNL1        0.0607
      5 CL        139.7160  143.0826  170.7618 Cl      1  UNL1       -0.0821
      6 C         140.7713  142.7336  168.4135 C.ar    1  UNL1        0.0486
      7 C         141.0261  141.8607  167.2206 C.ar    1  UNL1        0.1434
      8 C         140.7354  139.5911  165.9900 C.3     1  UNL1        0.0987
      9 C         143.1603  138.7217  166.3274 C.3     1  UNL1        0.0861
     10 N         142.1336  139.4104  165.4779 N.3     1  UNL1       -0.2925
     11 H         142.0631  138.8774  164.6111 H       1  UNL1        0.1236
     12 O         141.8266  142.3846  166.0652 O.3     1  UNL1       -0.4537
     13 C         141.1892  143.3056  165.0675 C.ar    1  UNL1        0.1463
     14 C         142.0361  144.2637  164.2833 C.ar    1  UNL1        0.0399
     15 C         141.3988  145.1847  163.2856 C.ar    1  UNL1        0.0336
     16 C         139.9145  145.1477  163.0721 C.ar    1  UNL1        0.1508
     17 F         139.2771  146.0688  162.0744 F       1  UNL1       -0.2033
     18 C         139.0676  144.1897  163.8562 C.ar    1  UNL1        0.0881
     19 CL        137.5833  144.1527  163.6427 Cl      1  UNL1       -0.0798
     20 C         139.7050  143.2686  164.8540 C.ar    1  UNL1        0.0511
@<TRIPOS>BOND
     1     9    10    1
     2    10     8    1
     3     8     1    1
     4     1     2   ar
     5     2     3   ar
     6     3     4   ar
     7     4     5    1
     8     4     6   ar
     9     6     7   ar
    10     7    12    1
    11    12    13    1
    12    13    14   ar
    13    14    15   ar
    14    15    16   ar
    15    16    17    1
    16    16    18   ar
    17    18    19    1
    18    18    20   ar
    19     7     1   ar
    20    20    13   ar
    21    10    11    1
