@<TRIPOS>MOLECULE
*****
 31 34 0 0 0
SMALL
GASTEIGER

@<TRIPOS>ATOM
      1 C         139.6914  144.4180  161.7335 C.ar    1  UNL1        0.1412
      2 C         138.5507  144.4381  162.7073 C.ar    1  UNL1        0.0710
      3 S         139.0494  143.9023  164.0166 S.2     1  UNL1       -0.0670
      4 C         140.4984  143.5511  163.8519 C.ar    1  UNL1        0.1122
      5 N         140.8952  143.8699  162.4409 N.ar    1  UNL1       -0.2259
      6 C         141.3935  142.9812  164.9122 C.3     1  UNL1        0.1549
      7 C         139.9288  142.6582  164.9140 C.3     1  UNL1        0.1705
      8 O         139.3591  141.7653  165.9761 O.3     1  UNL1       -0.3538
      9 C         140.2542  141.1954  167.0364 C.3     1  UNL1        0.1155
     10 C         139.6844  140.3025  168.0985 C.3     1  UNL1        0.0320
     11 C         141.7189  141.5185  167.0345 C.3     1  UNL1        0.0328
     12 C         142.2886  142.4114  165.9724 C.3     1  UNL1        0.0426
     13 C         143.7535  142.7345  165.9705 C.3     1  UNL1        0.0673
     14 S         144.3231  143.6274  164.9084 S.3     1  UNL1       -0.0807
     15 C         143.4281  144.1973  163.8481 C.2     1  UNL1        0.1483
     16 N         143.9978  145.0902  162.7860 N.pl3   1  UNL1       -0.3380
     17 N         141.9633  143.8742  163.8500 N.2     1  UNL1       -0.2464
     18 H         144.9592  145.3022  162.7847 H       1  UNL1        0.1442
     19 H         143.4104  145.4642  162.0901 H       1  UNL1        0.1442
     20 C         140.9082  145.0605  159.5298 C.2     1  UNL1        0.2683
     21 O         142.2323  144.8045  160.1862 O.2     1  UNL1       -0.2681
     22 N         139.6377  144.8673  160.3034 N.am    1  UNL1       -0.2641
     23 H         138.7686  145.0353  159.8725 H       1  UNL1        0.1566
     24 C         140.7470  146.4084  155.2393 C.ar    1  UNL1        0.1578
     25 C         141.8468  145.4975  155.6985 C.ar    1  UNL1        0.0402
     26 C         141.9005  145.0482  157.1286 C.ar    1  UNL1        0.0269
     27 C         140.8544  145.5098  158.0996 C.ar    1  UNL1        0.1350
     28 N         139.7546  146.4207  157.6404 N.ar    1  UNL1       -0.2361
     29 C         139.7009  146.8699  156.2102 C.ar    1  UNL1        0.1357
     30 C         140.3267  148.2747  153.4815 C.3     1  UNL1        0.2525
     31 O         140.6933  146.8576  153.8092 O.3     1  UNL1       -0.4699
@<TRIPOS>BOND
     1    30    31    1
     2    31    24    1
     3    24    25   ar
     4    25    26   ar
     5    26    27   ar
     6    27    20    1
     7    20    21    2
     8    20    22   am
     9    22     1    1
    10     1     2   ar
    11     2     3   ar
    12     3     4   ar
    13     6     4    1
    14     6     7    1
    15     7     8    1
    16     8     9    1
    17     9    10    1
    18     9    11    1
    19    12    11    1
    20    12    13    1
    21    13    14    1
    22    14    15    1
    23    15    16    1
    24    15    17    2
    25     4     5   ar
    26    27    28   ar
    27    28    29   ar
    28    29    24   ar
    29     5     1   ar
    30    12     6    1
    31    17     6    1
    32    22    23    1
    33    16    18    1
    34    16    19    1
@<TRIPOS>MOLECULE
*****
 31 34 0 0 0
SMALL
GASTEIGER

@<TRIPOS>ATOM
      1 C         141.4389  145.1081  161.1564 C.ar    1  UNL1        0.1412
      2 C         140.4884  145.5592  162.2256 C.ar    1  UNL1        0.0710
      3 S         140.7982  144.7903  163.4758 S.2     1  UNL1       -0.0670
      4 C         141.9402  143.8641  163.1792 C.ar    1  UNL1        0.1122
      5 N         142.3362  144.0605  161.7459 N.ar    1  UNL1       -0.2259
      6 C         142.5748  142.9091  164.1463 C.3     1  UNL1        0.1549
      7 C         141.2849  143.5880  164.5000 C.3     1  UNL1        0.1705
      8 O         140.6296  143.3120  165.8207 O.3     1  UNL1       -0.3538
      9 C         141.2642  142.3571  166.7878 C.3     1  UNL1        0.1155
     10 C         140.6089  142.0811  168.1086 C.3     1  UNL1        0.0320
     11 C         142.5541  141.6781  166.4342 C.3     1  UNL1        0.0328
     12 C         143.2094  141.9541  165.1134 C.3     1  UNL1        0.0426
     13 C         144.4994  141.2751  164.7598 C.3     1  UNL1        0.0673
     14 S         145.1547  141.5511  163.4390 S.3     1  UNL1       -0.0807
     15 C         144.5201  142.5061  162.4719 C.2     1  UNL1        0.1483
     16 N         145.1755  142.7821  161.1512 N.pl3   1  UNL1       -0.3380
     17 N         143.2302  143.1851  162.8256 N.2     1  UNL1       -0.2464
     18 H         146.0221  142.3365  160.9191 H       1  UNL1        0.1442
     19 H         144.7590  143.4089  160.5164 H       1  UNL1        0.1442
     20 C         140.4948  145.1140  158.7360 C.2     1  UNL1        0.2683
     21 O         139.4601  144.1049  159.1371 O.2     1  UNL1       -0.2681
     22 N         141.4842  145.6156  159.7457 N.am    1  UNL1       -0.2641
     23 H         142.1633  146.2780  159.4824 H       1  UNL1        0.1566
     24 C         140.6309  146.6367  154.5036 C.ar    1  UNL1        0.1578
     25 C         141.5520  145.5338  154.9339 C.ar    1  UNL1        0.0402
     26 C         141.5067  145.0262  156.3446 C.ar    1  UNL1        0.0269
     27 C         140.5401  145.6216  157.3253 C.ar    1  UNL1        0.1350
     28 N         139.6190  146.7245  156.8950 N.ar    1  UNL1       -0.2361
     29 C         139.6644  147.2320  155.4841 C.ar    1  UNL1        0.1357
     30 C         140.8362  148.6120  152.8286 C.3     1  UNL1        0.2525
     31 O         140.6763  147.1442  153.0929 O.3     1  UNL1       -0.4699
@<TRIPOS>BOND
     1    30    31    1
     2    31    24    1
     3    24    25   ar
     4    25    26   ar
     5    26    27   ar
     6    27    20    1
     7    20    21    2
     8    20    22   am
     9    22     1    1
    10     1     2   ar
    11     2     3   ar
    12     3     4   ar
    13     6     4    1
    14     6     7    1
    15     7     8    1
    16     8     9    1
    17     9    10    1
    18     9    11    1
    19    12    11    1
    20    12    13    1
    21    13    14    1
    22    14    15    1
    23    15    16    1
    24    15    17    2
    25     4     5   ar
    26    27    28   ar
    27    28    29   ar
    28    29    24   ar
    29     5     1   ar
    30    12     6    1
    31    17     6    1
    32    22    23    1
    33    16    18    1
    34    16    19    1
@<TRIPOS>MOLECULE
*****
 31 34 0 0 0
SMALL
GASTEIGER

@<TRIPOS>ATOM
      1 C         138.9109  143.4741  162.0440 C.ar    1  UNL1        0.1412
      2 C         138.0114  144.2351  162.9723 C.ar    1  UNL1        0.0710
      3 S         138.0482  143.5594  164.3110 S.2     1  UNL1       -0.0670
      4 C         138.9706  142.3807  164.2101 C.ar    1  UNL1        0.1122
      5 N         139.5037  142.3281  162.8090 N.ar    1  UNL1       -0.2259
      6 C         139.3017  141.4230  165.3160 C.3     1  UNL1        0.1549
      7 C         139.5231  142.8942  165.5066 C.3     1  UNL1        0.1705
      8 O         140.0756  143.4077  166.8031 O.3     1  UNL1       -0.3538
      9 C         140.4066  142.4499  167.9091 C.3     1  UNL1        0.1155
     10 C         140.9591  142.9634  169.2057 C.3     1  UNL1        0.0320
     11 C         140.1852  140.9787  167.7184 C.3     1  UNL1        0.0328
     12 C         139.6327  140.4652  166.4219 C.3     1  UNL1        0.0426
     13 C         139.4112  138.9939  166.2312 C.3     1  UNL1        0.0673
     14 S         138.8588  138.4804  164.9347 S.3     1  UNL1       -0.0807
     15 C         138.5277  139.4382  163.8288 C.2     1  UNL1        0.1483
     16 N         137.9752  138.9247  162.5322 N.pl3   1  UNL1       -0.3380
     17 N         138.7491  140.9094  164.0194 N.2     1  UNL1       -0.2464
     18 H         137.8298  137.9590  162.4071 H       1  UNL1        0.1442
     19 H         137.7579  139.5533  161.8063 H       1  UNL1        0.1442
     20 C         140.4425  144.4949  160.2105 C.2     1  UNL1        0.2683
     21 O         141.4523  144.8606  161.2575 O.2     1  UNL1       -0.2681
     22 N         139.1718  143.8017  160.6037 N.am    1  UNL1       -0.2641
     23 H         138.5090  143.5617  159.9165 H       1  UNL1        0.1566
     24 C         141.2249  145.4776  155.8893 C.ar    1  UNL1        0.1578
     25 C         140.0454  144.6300  156.2640 C.ar    1  UNL1        0.0402
     26 C         139.7846  144.3024  157.7044 C.ar    1  UNL1        0.0269
     27 C         140.7033  144.8225  158.7701 C.ar    1  UNL1        0.1350
     28 N         141.8828  145.6701  158.3953 N.ar    1  UNL1       -0.2361
     29 C         142.1435  145.9977  156.9549 C.ar    1  UNL1        0.1357
     30 C         140.7374  146.9240  153.7868 C.3     1  UNL1        0.2525
     31 O         141.4856  145.8051  154.4489 O.3     1  UNL1       -0.4699
@<TRIPOS>BOND
     1    30    31    1
     2    31    24    1
     3    24    25   ar
     4    25    26   ar
     5    26    27   ar
     6    27    20    1
     7    20    21    2
     8    20    22   am
     9    22     1    1
    10     1     2   ar
    11     2     3   ar
    12     3     4   ar
    13     6     4    1
    14     6     7    1
    15     7     8    1
    16     8     9    1
    17     9    10    1
    18     9    11    1
    19    12    11    1
    20    12    13    1
    21    13    14    1
    22    14    15    1
    23    15    16    1
    24    15    17    2
    25     4     5   ar
    26    27    28   ar
    27    28    29   ar
    28    29    24   ar
    29     5     1   ar
    30    12     6    1
    31    17     6    1
    32    22    23    1
    33    16    18    1
    34    16    19    1
@<TRIPOS>MOLECULE
*****
 31 34 0 0 0
SMALL
GASTEIGER

@<TRIPOS>ATOM
      1 C         140.6862  144.1827  163.0639 C.ar    1  UNL1        0.1412
      2 C         139.9116  145.4175  162.7099 C.ar    1  UNL1        0.0710
      3 S         140.1510  145.7151  161.2594 S.2     1  UNL1       -0.0670
      4 C         141.0737  144.6641  160.7168 C.ar    1  UNL1        0.1122
      5 N         141.4044  143.7171  161.8320 N.ar    1  UNL1       -0.2259
      6 C         141.5772  144.5758  159.3066 C.3     1  UNL1        0.1549
      7 C         140.3810  145.4232  159.6242 C.3     1  UNL1        0.1705
      8 O         139.6883  146.1823  158.5315 O.3     1  UNL1       -0.3538
      9 C         140.1918  146.0940  157.1213 C.3     1  UNL1        0.1155
     10 C         139.4990  146.8531  156.0286 C.3     1  UNL1        0.0320
     11 C         141.3880  145.2465  156.8037 C.3     1  UNL1        0.0328
     12 C         142.0807  144.4874  157.8964 C.3     1  UNL1        0.0426
     13 C         143.2770  143.6399  157.5788 C.3     1  UNL1        0.0673
     14 S         143.9697  142.8808  158.6715 S.3     1  UNL1       -0.0807
     15 C         143.4662  142.9692  160.0817 C.2     1  UNL1        0.1483
     16 N         144.1589  142.2100  161.1744 N.pl3   1  UNL1       -0.3380
     17 N         142.2700  143.8166  160.3993 N.2     1  UNL1       -0.2464
     18 H         144.9440  141.6538  160.9659 H       1  UNL1        0.1442
     19 H         143.8285  142.2680  162.0999 H       1  UNL1        0.1442
     20 C         139.7643  142.4353  164.7510 C.2     1  UNL1        0.2683
     21 O         138.7466  141.9963  163.7404 O.2     1  UNL1       -0.2681
     22 N         140.7341  143.5284  164.4128 N.am    1  UNL1       -0.2641
     23 H         141.4021  143.8165  165.0761 H       1  UNL1        0.1566
     24 C         139.9083  140.4725  168.7979 C.ar    1  UNL1        0.1578
     25 C         139.3371  139.7320  167.6251 C.ar    1  UNL1        0.0402
     26 C         139.2891  140.3862  166.2761 C.ar    1  UNL1        0.0269
     27 C         139.8123  141.7810  166.0999 C.ar    1  UNL1        0.1350
     28 N         140.3835  142.5215  167.2728 N.ar    1  UNL1       -0.2361
     29 C         140.4315  141.8672  168.6218 C.ar    1  UNL1        0.1357
     30 C         140.7074  140.4694  171.2700 C.3     1  UNL1        0.2525
     31 O         139.9562  139.8182  170.1468 O.3     1  UNL1       -0.4699
@<TRIPOS>BOND
     1    30    31    1
     2    31    24    1
     3    24    25   ar
     4    25    26   ar
     5    26    27   ar
     6    27    20    1
     7    20    21    2
     8    20    22   am
     9    22     1    1
    10     1     2   ar
    11     2     3   ar
    12     3     4   ar
    13     6     4    1
    14     6     7    1
    15     7     8    1
    16     8     9    1
    17     9    10    1
    18     9    11    1
    19    12    11    1
    20    12    13    1
    21    13    14    1
    22    14    15    1
    23    15    16    1
    24    15    17    2
    25     4     5   ar
    26    27    28   ar
    27    28    29   ar
    28    29    24   ar
    29     5     1   ar
    30    12     6    1
    31    17     6    1
    32    22    23    1
    33    16    18    1
    34    16    19    1
@<TRIPOS>MOLECULE
*****
 31 34 0 0 0
SMALL
GASTEIGER

@<TRIPOS>ATOM
      1 C         142.6802  137.8742  157.8388 C.ar    1  UNL1        0.1412
      2 C         141.3569  137.9961  157.1433 C.ar    1  UNL1        0.0710
      3 S         141.1887  136.7999  156.2539 S.2     1  UNL1       -0.0670
      4 C         142.4082  135.9387  156.3999 C.ar    1  UNL1        0.1122
      5 N         143.3300  136.6027  157.3794 N.ar    1  UNL1       -0.2259
      6 C         142.6614  134.6414  155.6908 C.3     1  UNL1        0.1549
      7 C         143.1486  134.8356  157.0961 C.3     1  UNL1        0.1705
      8 O         143.8890  133.7324  157.7923 O.3     1  UNL1       -0.3538
      9 C         144.1422  132.4350  157.0833 C.3     1  UNL1        0.1155
     10 C         144.8826  131.3318  157.7796 C.3     1  UNL1        0.0320
     11 C         143.6550  132.2409  155.6780 C.3     1  UNL1        0.0328
     12 C         142.9146  133.3440  154.9818 C.3     1  UNL1        0.0426
     13 C         142.4274  133.1499  153.5764 C.3     1  UNL1        0.0673
     14 S         141.6870  134.2531  152.8801 S.3     1  UNL1       -0.0807
     15 C         141.4338  135.5504  153.5892 C.2     1  UNL1        0.1483
     16 N         140.6934  136.6536  152.8929 N.pl3   1  UNL1       -0.3380
     17 N         141.9210  135.7446  154.9945 N.2     1  UNL1       -0.2464
     18 H         140.3736  136.5262  151.9705 H       1  UNL1        0.1442
     19 H         140.5272  137.5051  153.3583 H       1  UNL1        0.1442
     20 C         143.2493  138.5326  160.2868 C.2     1  UNL1        0.2683
     21 O         142.6725  137.2350  160.7699 O.2     1  UNL1       -0.2681
     22 N         143.2532  138.8522  158.8212 N.am    1  UNL1       -0.2641
     23 H         143.6318  139.7039  158.5042 H       1  UNL1        0.1566
     24 C         144.9684  141.4666  163.2341 C.ar    1  UNL1        0.1578
     25 C         144.7232  140.0455  163.6467 C.ar    1  UNL1        0.0402
     26 C         144.1502  139.0674  162.6643 C.ar    1  UNL1        0.0269
     27 C         143.8223  139.5106  161.2692 C.ar    1  UNL1        0.1350
     28 N         144.0675  140.9317  160.8566 N.ar    1  UNL1       -0.2361
     29 C         144.6405  141.9098  161.8391 C.ar    1  UNL1        0.1357
     30 C         144.6279  143.3120  165.0309 C.3     1  UNL1        0.2525
     31 O         145.5413  142.4446  164.2165 O.3     1  UNL1       -0.4699
@<TRIPOS>BOND
     1    30    31    1
     2    31    24    1
     3    24    25   ar
     4    25    26   ar
     5    26    27   ar
     6    27    20    1
     7    20    21    2
     8    20    22   am
     9    22     1    1
    10     1     2   ar
    11     2     3   ar
    12     3     4   ar
    13     6     4    1
    14     6     7    1
    15     7     8    1
    16     8     9    1
    17     9    10    1
    18     9    11    1
    19    12    11    1
    20    12    13    1
    21    13    14    1
    22    14    15    1
    23    15    16    1
    24    15    17    2
    25     4     5   ar
    26    27    28   ar
    27    28    29   ar
    28    29    24   ar
    29     5     1   ar
    30    12     6    1
    31    17     6    1
    32    22    23    1
    33    16    18    1
    34    16    19    1
@<TRIPOS>MOLECULE
*****
 31 34 0 0 0
SMALL
GASTEIGER

@<TRIPOS>ATOM
      1 C         144.5674  142.7572  161.3694 C.ar    1  UNL1        0.1412
      2 C         145.0664  142.2637  162.6951 C.ar    1  UNL1        0.0710
      3 S         144.0053  142.5351  163.7201 S.2     1  UNL1       -0.0670
      4 C         142.8505  143.1964  163.0278 C.ar    1  UNL1        0.1122
      5 N         143.1979  143.3337  161.5751 N.ar    1  UNL1       -0.2259
      6 C         141.5727  143.6422  163.6747 C.3     1  UNL1        0.1549
      7 C         142.4931  142.7053  164.3993 C.3     1  UNL1        0.1705
      8 O         142.1357  142.2141  165.7707 O.3     1  UNL1       -0.3538
      9 C         140.8579  142.6598  166.4177 C.3     1  UNL1        0.1155
     10 C         140.5006  142.1686  167.7892 C.3     1  UNL1        0.0320
     11 C         139.9375  143.5967  165.6932 C.3     1  UNL1        0.0328
     12 C         140.2949  144.0879  164.3217 C.3     1  UNL1        0.0426
     13 C         139.3745  145.0249  163.5971 C.3     1  UNL1        0.0673
     14 S         139.7318  145.5160  162.2256 S.3     1  UNL1       -0.0807
     15 C         141.0096  145.0703  161.5786 C.2     1  UNL1        0.1483
     16 N         141.3670  145.5615  160.2071 N.pl3   1  UNL1       -0.3380
     17 N         141.9301  144.1334  162.3032 N.2     1  UNL1       -0.2464
     18 H         140.7629  146.1764  159.7316 H       1  UNL1        0.1442
     19 H         142.2057  145.2689  159.7825 H       1  UNL1        0.1442
     20 C         144.7237  141.9280  158.9122 C.2     1  UNL1        0.2683
     21 O         143.3992  141.2399  159.0601 O.2     1  UNL1       -0.2681
     22 N         145.3078  142.6867  160.0669 N.am    1  UNL1       -0.2641
     23 H         146.1772  143.1384  159.9698 H       1  UNL1        0.1566
     24 C         146.9454  141.7165  155.0045 C.ar    1  UNL1        0.1578
     25 C         145.7426  140.8494  155.2314 C.ar    1  UNL1        0.0402
     26 C         145.0021  140.9199  156.5339 C.ar    1  UNL1        0.0269
     27 C         145.4643  141.8576  157.6097 C.ar    1  UNL1        0.1350
     28 N         146.6671  142.7247  157.3828 N.ar    1  UNL1       -0.2361
     29 C         147.4076  142.6542  156.0802 C.ar    1  UNL1        0.1357
     30 C         149.1665  141.8836  153.6672 C.3     1  UNL1        0.2525
     31 O         147.6858  141.6460  153.7020 O.3     1  UNL1       -0.4699
@<TRIPOS>BOND
     1    30    31    1
     2    31    24    1
     3    24    25   ar
     4    25    26   ar
     5    26    27   ar
     6    27    20    1
     7    20    21    2
     8    20    22   am
     9    22     1    1
    10     1     2   ar
    11     2     3   ar
    12     3     4   ar
    13     6     4    1
    14     6     7    1
    15     7     8    1
    16     8     9    1
    17     9    10    1
    18     9    11    1
    19    12    11    1
    20    12    13    1
    21    13    14    1
    22    14    15    1
    23    15    16    1
    24    15    17    2
    25     4     5   ar
    26    27    28   ar
    27    28    29   ar
    28    29    24   ar
    29     5     1   ar
    30    12     6    1
    31    17     6    1
    32    22    23    1
    33    16    18    1
    34    16    19    1
@<TRIPOS>MOLECULE
*****
 31 34 0 0 0
SMALL
GASTEIGER

@<TRIPOS>ATOM
      1 C         143.2524  143.4804  162.3494 C.ar    1  UNL1        0.1412
      2 C         144.0995  144.2036  163.3541 C.ar    1  UNL1        0.0710
      3 S         144.0703  143.4215  164.6337 S.2     1  UNL1       -0.0670
      4 C         143.2052  142.2149  164.4199 C.ar    1  UNL1        0.1122
      5 N         142.6997  142.2513  163.0081 N.ar    1  UNL1       -0.2259
      6 C         142.8993  141.1575  165.4389 C.3     1  UNL1        0.1549
      7 C         143.3467  142.5190  165.8819 C.3     1  UNL1        0.1705
      8 O         143.4883  142.8230  167.3438 O.3     1  UNL1       -0.3538
      9 C         143.1824  141.7657  168.3629 C.3     1  UNL1        0.1155
     10 C         143.3239  142.0698  169.8249 C.3     1  UNL1        0.0320
     11 C         142.7349  140.4043  167.9199 C.3     1  UNL1        0.0328
     12 C         142.5934  140.1002  166.4579 C.3     1  UNL1        0.0426
     13 C         142.1459  138.7387  166.0149 C.3     1  UNL1        0.0673
     14 S         142.0044  138.4346  164.5529 S.3     1  UNL1       -0.0807
     15 C         142.3103  139.4920  163.5339 C.2     1  UNL1        0.1483
     16 N         142.1687  139.1878  162.0718 N.pl3   1  UNL1       -0.3380
     17 N         142.7577  140.8534  163.9768 N.2     1  UNL1       -0.2464
     18 H         141.8750  138.2943  161.7811 H       1  UNL1        0.1442
     19 H         142.3695  139.8818  161.4030 H       1  UNL1        0.1442
     20 C         141.7543  144.6692  160.5908 C.2     1  UNL1        0.2683
     21 O         140.7571  144.9974  161.6621 O.2     1  UNL1       -0.2681
     22 N         143.0020  143.9108  160.9345 N.am    1  UNL1       -0.2641
     23 H         143.6565  143.6954  160.2313 H       1  UNL1        0.1566
     24 C         141.0033  145.9603  156.3459 C.ar    1  UNL1        0.1578
     25 C         139.9547  146.1847  157.3948 C.ar    1  UNL1        0.0402
     26 C         140.2050  145.7544  158.8097 C.ar    1  UNL1        0.0269
     27 C         141.5040  145.0996  159.1759 C.ar    1  UNL1        0.1350
     28 N         142.5526  144.8751  158.1270 N.ar    1  UNL1       -0.2361
     29 C         142.3022  145.3055  156.7120 C.ar    1  UNL1        0.1357
     30 C         139.6726  147.3868  154.6301 C.3     1  UNL1        0.2525
     31 O         140.7529  146.3906  154.9310 O.3     1  UNL1       -0.4699
@<TRIPOS>BOND
     1    30    31    1
     2    31    24    1
     3    24    25   ar
     4    25    26   ar
     5    26    27   ar
     6    27    20    1
     7    20    21    2
     8    20    22   am
     9    22     1    1
    10     1     2   ar
    11     2     3   ar
    12     3     4   ar
    13     6     4    1
    14     6     7    1
    15     7     8    1
    16     8     9    1
    17     9    10    1
    18     9    11    1
    19    12    11    1
    20    12    13    1
    21    13    14    1
    22    14    15    1
    23    15    16    1
    24    15    17    2
    25     4     5   ar
    26    27    28   ar
    27    28    29   ar
    28    29    24   ar
    29     5     1   ar
    30    12     6    1
    31    17     6    1
    32    22    23    1
    33    16    18    1
    34    16    19    1
@<TRIPOS>MOLECULE
*****
 31 34 0 0 0
SMALL
GASTEIGER

@<TRIPOS>ATOM
      1 C         143.3573  141.9354  161.7452 C.ar    1  UNL1        0.1412
      2 C         143.7959  142.6247  163.0031 C.ar    1  UNL1        0.0710
      3 S         142.6220  142.6790  163.9355 S.2     1  UNL1       -0.0670
      4 C         141.4579  142.0232  163.2536 C.ar    1  UNL1        0.1122
      5 N         141.9124  141.5637  161.9000 N.ar    1  UNL1       -0.2259
      6 C         140.0811  141.8563  163.8251 C.3     1  UNL1        0.1549
      7 C         141.0108  140.6813  163.7530 C.3     1  UNL1        0.1705
      8 O         140.5636  139.3395  164.2524 O.3     1  UNL1       -0.3538
      9 C         139.1869  139.1726  164.8239 C.3     1  UNL1        0.1155
     10 C         138.7397  137.8306  165.3233 C.3     1  UNL1        0.0320
     11 C         138.2572  140.3475  164.8960 C.3     1  UNL1        0.0328
     12 C         138.7043  141.6893  164.3966 C.3     1  UNL1        0.0426
     13 C         137.7747  142.8644  164.4686 C.3     1  UNL1        0.0673
     14 S         138.2218  144.2062  163.9692 S.3     1  UNL1       -0.0807
     15 C         139.5986  144.3731  163.3977 C.2     1  UNL1        0.1483
     16 N         140.0457  145.7151  162.8983 N.pl3   1  UNL1       -0.3380
     17 N         140.5282  143.1982  163.3257 N.2     1  UNL1       -0.2464
     18 H         139.4355  146.4862  162.9456 H       1  UNL1        0.1442
     19 H         140.9493  145.8247  162.5232 H       1  UNL1        0.1442
     20 C         144.1231  142.5589  159.3421 C.2     1  UNL1        0.2683
     21 O         143.1767  143.7227  159.3425 O.2     1  UNL1       -0.2681
     22 N         144.2133  141.6653  160.5435 N.am    1  UNL1       -0.2641
     23 H         144.8345  140.9015  160.5433 H       1  UNL1        0.1566
     24 C         146.6914  141.7484  155.7370 C.ar    1  UNL1        0.1578
     25 C         145.3152  141.1583  155.8254 C.ar    1  UNL1        0.0402
     26 C         144.4590  141.4285  157.0271 C.ar    1  UNL1        0.0269
     27 C         144.9792  142.2888  158.1405 C.ar    1  UNL1        0.1350
     28 N         146.3554  142.8789  158.0520 N.ar    1  UNL1       -0.2361
     29 C         147.2115  142.6086  156.8503 C.ar    1  UNL1        0.1357
     30 C         147.7973  142.5655  153.5327 C.3     1  UNL1        0.2525
     31 O         147.5474  141.4782  154.5353 O.3     1  UNL1       -0.4699
@<TRIPOS>BOND
     1    30    31    1
     2    31    24    1
     3    24    25   ar
     4    25    26   ar
     5    26    27   ar
     6    27    20    1
     7    20    21    2
     8    20    22   am
     9    22     1    1
    10     1     2   ar
    11     2     3   ar
    12     3     4   ar
    13     6     4    1
    14     6     7    1
    15     7     8    1
    16     8     9    1
    17     9    10    1
    18     9    11    1
    19    12    11    1
    20    12    13    1
    21    13    14    1
    22    14    15    1
    23    15    16    1
    24    15    17    2
    25     4     5   ar
    26    27    28   ar
    27    28    29   ar
    28    29    24   ar
    29     5     1   ar
    30    12     6    1
    31    17     6    1
    32    22    23    1
    33    16    18    1
    34    16    19    1
@<TRIPOS>MOLECULE
*****
 31 34 0 0 0
SMALL
GASTEIGER

@<TRIPOS>ATOM
      1 C         140.1169  144.2060  161.0770 C.ar    1  UNL1        0.1412
      2 C         140.1514  144.9194  162.3961 C.ar    1  UNL1        0.0710
      3 S         140.4175  143.9025  163.4663 S.2     1  UNL1       -0.0670
      4 C         140.5475  142.5606  162.8085 C.ar    1  UNL1        0.1122
      5 N         140.3617  142.7482  161.3320 N.ar    1  UNL1       -0.2259
      6 C         140.8160  141.2596  163.5052 C.3     1  UNL1        0.1549
      7 C         141.9597  142.1175  163.0515 C.3     1  UNL1        0.1705
      8 O         143.3720  141.6744  163.2945 O.3     1  UNL1       -0.3538
      9 C         143.6406  140.3734  163.9912 C.3     1  UNL1        0.1155
     10 C         145.0529  139.9304  164.2341 C.3     1  UNL1        0.0320
     11 C         142.4968  139.5155  164.4448 C.3     1  UNL1        0.0328
     12 C         141.0846  139.9586  164.2018 C.3     1  UNL1        0.0426
     13 C         139.9407  139.1007  164.6554 C.3     1  UNL1        0.0673
     14 S         138.5284  139.5438  164.4124 S.3     1  UNL1       -0.0807
     15 C         138.2599  140.8448  163.7158 C.2     1  UNL1        0.1483
     16 N         136.8475  141.2879  163.4728 N.pl3   1  UNL1       -0.3380
     17 N         139.4036  141.7027  163.2622 N.2     1  UNL1       -0.2464
     18 H         136.0968  140.7248  163.7706 H       1  UNL1        0.1442
     19 H         136.6712  142.1417  163.0156 H       1  UNL1        0.1442
     20 C         141.0304  145.0771  158.8062 C.2     1  UNL1        0.2683
     21 O         142.4189  144.6818  159.2131 O.2     1  UNL1       -0.2681
     22 N         139.8794  144.8392  159.7382 N.am    1  UNL1       -0.2641
     23 H         138.9680  145.0987  159.4712 H       1  UNL1        0.1566
     24 C         140.3175  146.9769  154.7896 C.ar    1  UNL1        0.1578
     25 C         141.4144  145.9676  154.9579 C.ar    1  UNL1        0.0402
     26 C         141.6520  145.3343  156.2967 C.ar    1  UNL1        0.0269
     27 C         140.7927  145.7104  157.4674 C.ar    1  UNL1        0.1350
     28 N         139.6959  146.7196  157.2991 N.ar    1  UNL1       -0.2361
     29 C         139.4583  147.3529  155.9602 C.ar    1  UNL1        0.1357
     30 C         139.9026  149.0957  153.3446 C.3     1  UNL1        0.2525
     31 O         140.0799  147.6100  153.4508 O.3     1  UNL1       -0.4699
@<TRIPOS>BOND
     1    30    31    1
     2    31    24    1
     3    24    25   ar
     4    25    26   ar
     5    26    27   ar
     6    27    20    1
     7    20    21    2
     8    20    22   am
     9    22     1    1
    10     1     2   ar
    11     2     3   ar
    12     3     4   ar
    13     6     4    1
    14     6     7    1
    15     7     8    1
    16     8     9    1
    17     9    10    1
    18     9    11    1
    19    12    11    1
    20    12    13    1
    21    13    14    1
    22    14    15    1
    23    15    16    1
    24    15    17    2
    25     4     5   ar
    26    27    28   ar
    27    28    29   ar
    28    29    24   ar
    29     5     1   ar
    30    12     6    1
    31    17     6    1
    32    22    23    1
    33    16    18    1
    34    16    19    1
