@<TRIPOS>MOLECULE
*****
 28 30 0 0 0
SMALL
GASTEIGER

@<TRIPOS>ATOM
      1 C         141.9760  141.4121  161.7970 C.ar    1  UNL1        0.1030
      2 C         143.2612  141.1129  161.0839 C.ar    1  UNL1        0.0414
      3 C         144.0720  139.9119  161.4715 C.ar    1  UNL1        0.1034
      4 N         143.5974  139.0101  162.5722 N.ar    1  UNL1       -0.2120
      5 C         142.3122  139.3092  163.2853 C.ar    1  UNL1        0.2207
      6 N         141.5015  140.5103  162.8977 N.ar    1  UNL1       -0.2120
      7 C         139.7388  146.1946  161.8614 C.3     1  UNL1        0.0718
      8 C         140.1369  144.8114  161.4391 C.ar    1  UNL1        0.1208
      9 N         139.6981  144.1112  160.1871 N.ar    1  UNL1       -0.2293
     10 C         140.3337  142.7527  160.1689 C.ar    1  UNL1        0.1188
     11 C         141.1652  142.6132  161.4095 C.ar    1  UNL1        0.0981
     12 N         141.0436  143.8855  162.1945 N.ar    1  UNL1       -0.3155
     13 C         141.7114  144.1803  163.5049 C.3     1  UNL1        0.0868
     14 C         141.1392  143.6321  164.7784 C.3     1  UNL1        0.0245
     15 C         142.9515  145.0235  163.5417 C.3     1  UNL1        0.0245
     16 N         141.8377  138.4074  164.3860 N.pl3   1  UNL1       -0.2825
     17 H         141.8413  137.4312  164.2585 H       1  UNL1        0.1551
     18 C         141.3576  138.9929  165.6808 C.ar    1  UNL1        0.0505
     19 C         139.8966  139.2644  165.8853 C.ar    1  UNL1        0.0148
     20 C         139.4165  139.8499  167.1801 C.ar    1  UNL1        0.0058
     21 C         140.3975  140.1639  168.2706 C.ar    1  UNL1        0.0537
     22 C         141.8585  139.8925  168.0662 C.ar    1  UNL1        0.0058
     23 C         142.3386  139.3070  166.7713 C.ar    1  UNL1        0.0148
     24 C         139.9174  140.7494  169.5655 C.2     1  UNL1        0.2491
     25 O         139.3953  139.8508  170.6471 O.2     1  UNL1       -0.2699
     26 N         139.9593  142.2336  169.7788 N.am    1  UNL1       -0.2726
     27 C         139.4792  142.8190  171.0737 C.3     1  UNL1        0.1152
     28 C         140.4813  143.1323  168.6972 C.3     1  UNL1        0.1152
@<TRIPOS>BOND
     1     7     8    1
     2     8     9   ar
     3     9    10   ar
     4    10    11   ar
     5    11     1    1
     6     1     2   ar
     7     2     3   ar
     8     3     4   ar
     9     4     5   ar
    10     5    16    1
    11    16    18    1
    12    18    19   ar
    13    19    20   ar
    14    20    21   ar
    15    21    24    1
    16    24    25    2
    17    24    26   am
    18    26    27    1
    19    26    28    1
    20    21    22   ar
    21    22    23   ar
    22     5     6   ar
    23    11    12   ar
    24    12    13    1
    25    13    14    1
    26    13    15    1
    27    12     8   ar
    28     6     1   ar
    29    23    18   ar
    30    16    17    1
@<TRIPOS>MOLECULE
*****
 28 30 0 0 0
SMALL
GASTEIGER

@<TRIPOS>ATOM
      1 C         141.9542  140.5130  161.7776 C.ar    1  UNL1        0.1030
      2 C         142.3848  139.6745  160.6108 C.ar    1  UNL1        0.0414
      3 C         142.0473  138.2135  160.5720 C.ar    1  UNL1        0.1034
      4 N         141.2792  137.5910  161.7000 N.ar    1  UNL1       -0.2120
      5 C         140.8486  138.4294  162.8669 C.ar    1  UNL1        0.2207
      6 N         141.1861  139.8904  162.9057 N.ar    1  UNL1       -0.2120
      7 C         143.9055  145.1776  163.2990 C.3     1  UNL1        0.0718
      8 C         143.1886  144.1181  162.5158 C.ar    1  UNL1        0.1208
      9 N         142.4334  144.3265  161.2365 N.ar    1  UNL1       -0.2293
     10 C         141.8791  143.0014  160.8044 C.ar    1  UNL1        0.1188
     11 C         142.2917  141.9740  161.8165 C.ar    1  UNL1        0.0981
     12 N         143.1010  142.6642  162.8741 N.ar    1  UNL1       -0.3155
     13 C         143.7149  142.0145  164.0787 C.3     1  UNL1        0.0868
     14 C         143.0857  142.1912  165.4287 C.3     1  UNL1        0.0245
     15 C         144.9583  141.1881  163.9331 C.3     1  UNL1        0.0245
     16 N         140.0805  137.8069  163.9949 N.pl3   1  UNL1       -0.2825
     17 H         139.6435  136.9336  163.8699 H       1  UNL1        0.1551
     18 C         139.9782  138.5149  165.3133 C.ar    1  UNL1        0.0505
     19 C         138.6349  138.7379  165.9426 C.ar    1  UNL1        0.0148
     20 C         138.5326  139.4459  167.2610 C.ar    1  UNL1        0.0058
     21 C         139.7735  139.9310  167.9501 C.ar    1  UNL1        0.0537
     22 C         141.1167  139.7080  167.3209 C.ar    1  UNL1        0.0058
     23 C         141.2191  139.0000  166.0024 C.ar    1  UNL1        0.0148
     24 C         139.6712  140.6390  169.2686 C.2     1  UNL1        0.2491
     25 O         139.2199  139.8915  170.4883 O.2     1  UNL1       -0.2699
     26 N         140.0200  142.0945  169.3673 N.am    1  UNL1       -0.2726
     27 C         139.9177  142.8025  170.6857 C.3     1  UNL1        0.1152
     28 C         140.4713  142.8420  168.1477 C.3     1  UNL1        0.1152
@<TRIPOS>BOND
     1     7     8    1
     2     8     9   ar
     3     9    10   ar
     4    10    11   ar
     5    11     1    1
     6     1     2   ar
     7     2     3   ar
     8     3     4   ar
     9     4     5   ar
    10     5    16    1
    11    16    18    1
    12    18    19   ar
    13    19    20   ar
    14    20    21   ar
    15    21    24    1
    16    24    25    2
    17    24    26   am
    18    26    27    1
    19    26    28    1
    20    21    22   ar
    21    22    23   ar
    22     5     6   ar
    23    11    12   ar
    24    12    13    1
    25    13    14    1
    26    13    15    1
    27    12     8   ar
    28     6     1   ar
    29    23    18   ar
    30    16    17    1
@<TRIPOS>MOLECULE
*****
 28 30 0 0 0
SMALL
GASTEIGER

@<TRIPOS>ATOM
      1 C         138.8263  141.1312  161.4575 C.ar    1  UNL1        0.1030
      2 C         137.7390  140.4573  160.6744 C.ar    1  UNL1        0.0414
      3 C         137.3741  139.0328  160.9704 C.ar    1  UNL1        0.1034
      4 N         138.0966  138.2823  162.0496 N.ar    1  UNL1       -0.2120
      5 C         139.1839  138.9562  162.8328 C.ar    1  UNL1        0.2207
      6 N         139.5488  140.3807  162.5368 N.ar    1  UNL1       -0.2120
      7 C         139.9759  146.2497  162.0587 C.3     1  UNL1        0.0718
      8 C         139.7196  144.9084  161.4378 C.ar    1  UNL1        0.1208
      9 N         139.7859  144.5873  159.9740 N.ar    1  UNL1       -0.2293
     10 C         139.4593  143.1333  159.8033 C.ar    1  UNL1        0.1188
     11 C         139.1912  142.5558  161.1615 C.ar    1  UNL1        0.0981
     12 N         139.3521  143.6529  162.1717 N.ar    1  UNL1       -0.3155
     13 C         139.1763  143.5182  163.6552 C.3     1  UNL1        0.0868
     14 C         140.3708  143.2972  164.5351 C.3     1  UNL1        0.0245
     15 C         137.8058  143.6045  164.2589 C.3     1  UNL1        0.0245
     16 N         139.9064  138.2057  163.9121 N.pl3   1  UNL1       -0.2825
     17 H         140.3321  137.3413  163.7101 H       1  UNL1        0.1551
     18 C         139.9803  138.7722  165.2990 C.ar    1  UNL1        0.0505
     19 C         141.3052  139.1774  165.8740 C.ar    1  UNL1        0.0148
     20 C         141.3791  139.7439  167.2609 C.ar    1  UNL1        0.0058
     21 C         140.1282  139.9053  168.0728 C.ar    1  UNL1        0.0537
     22 C         138.8034  139.5002  167.4978 C.ar    1  UNL1        0.0058
     23 C         138.7294  138.9336  166.1108 C.ar    1  UNL1        0.0148
     24 C         140.2021  140.4718  169.4598 C.2     1  UNL1        0.2491
     25 O         140.0974  139.5623  170.6480 O.2     1  UNL1       -0.2699
     26 N         140.3808  141.9478  169.6585 N.am    1  UNL1       -0.2726
     27 C         140.4548  142.5143  171.0454 C.3     1  UNL1        0.1152
     28 C         140.4855  142.8573  168.4703 C.3     1  UNL1        0.1152
@<TRIPOS>BOND
     1     7     8    1
     2     8     9   ar
     3     9    10   ar
     4    10    11   ar
     5    11     1    1
     6     1     2   ar
     7     2     3   ar
     8     3     4   ar
     9     4     5   ar
    10     5    16    1
    11    16    18    1
    12    18    19   ar
    13    19    20   ar
    14    20    21   ar
    15    21    24    1
    16    24    25    2
    17    24    26   am
    18    26    27    1
    19    26    28    1
    20    21    22   ar
    21    22    23   ar
    22     5     6   ar
    23    11    12   ar
    24    12    13    1
    25    13    14    1
    26    13    15    1
    27    12     8   ar
    28     6     1   ar
    29    23    18   ar
    30    16    17    1
@<TRIPOS>MOLECULE
*****
 28 30 0 0 0
SMALL
GASTEIGER

@<TRIPOS>ATOM
      1 C         141.5404  141.8977  161.4371 C.ar    1  UNL1        0.1030
      2 C         142.1951  142.0932  160.1019 C.ar    1  UNL1        0.0414
      3 C         143.5827  141.5755  159.8640 C.ar    1  UNL1        0.1034
      4 N         144.3155  140.8622  160.9613 N.ar    1  UNL1       -0.2120
      5 C         143.6607  140.6667  162.2966 C.ar    1  UNL1        0.2207
      6 N         142.2732  141.1844  162.5345 N.ar    1  UNL1       -0.2120
      7 C         137.4132  144.4042  163.5738 C.3     1  UNL1        0.0718
      8 C         138.2558  143.5675  162.6572 C.ar    1  UNL1        0.1208
      9 N         137.7792  142.8566  161.4253 N.ar    1  UNL1       -0.2293
     10 C         138.9517  142.1445  160.8183 C.ar    1  UNL1        0.1188
     11 C         140.1528  142.4154  161.6751 C.ar    1  UNL1        0.0981
     12 N         139.7227  143.2948  162.8116 N.ar    1  UNL1       -0.3155
     13 C         140.6046  143.8110  163.9096 C.3     1  UNL1        0.0868
     14 C         140.4243  143.3132  165.3130 C.3     1  UNL1        0.0245
     15 C         141.6669  144.8251  163.6042 C.3     1  UNL1        0.0245
     16 N         144.3935  139.9534  163.3940 N.pl3   1  UNL1       -0.2825
     17 H         145.2269  139.4685  163.1951 H       1  UNL1        0.1551
     18 C         143.8566  139.9789  164.7943 C.ar    1  UNL1        0.0505
     19 C         143.5485  141.2896  165.4557 C.ar    1  UNL1        0.0148
     20 C         143.0116  141.3151  166.8561 C.ar    1  UNL1        0.0058
     21 C         142.7826  140.0300  167.5950 C.ar    1  UNL1        0.0537
     22 C         143.0906  138.7194  166.9337 C.ar    1  UNL1        0.0058
     23 C         143.6276  138.6938  165.5333 C.ar    1  UNL1        0.0148
     24 C         142.2456  140.0555  168.9955 C.2     1  UNL1        0.2491
     25 O         143.1900  140.0640  170.1608 O.2     1  UNL1       -0.2699
     26 N         140.7643  140.0726  169.2305 N.am    1  UNL1       -0.2726
     27 C         140.2273  140.0981  170.6308 C.3     1  UNL1        0.1152
     28 C         139.8198  140.0641  168.0651 C.3     1  UNL1        0.1152
@<TRIPOS>BOND
     1     7     8    1
     2     8     9   ar
     3     9    10   ar
     4    10    11   ar
     5    11     1    1
     6     1     2   ar
     7     2     3   ar
     8     3     4   ar
     9     4     5   ar
    10     5    16    1
    11    16    18    1
    12    18    19   ar
    13    19    20   ar
    14    20    21   ar
    15    21    24    1
    16    24    25    2
    17    24    26   am
    18    26    27    1
    19    26    28    1
    20    21    22   ar
    21    22    23   ar
    22     5     6   ar
    23    11    12   ar
    24    12    13    1
    25    13    14    1
    26    13    15    1
    27    12     8   ar
    28     6     1   ar
    29    23    18   ar
    30    16    17    1
@<TRIPOS>MOLECULE
*****
 28 30 0 0 0
SMALL
GASTEIGER

@<TRIPOS>ATOM
      1 C         139.5775  139.5860  167.2066 C.ar    1  UNL1        0.1030
      2 C         138.2786  138.8896  166.9277 C.ar    1  UNL1        0.0414
      3 C         138.1884  137.8882  165.8146 C.ar    1  UNL1        0.1034
      4 N         139.3972  137.5832  164.9804 N.ar    1  UNL1       -0.2120
      5 C         140.6961  138.2796  165.2593 C.ar    1  UNL1        0.2207
      6 N         140.7862  139.2810  166.3724 N.ar    1  UNL1       -0.2120
      7 C         140.7048  143.9510  169.9556 C.3     1  UNL1        0.0718
      8 C         140.1858  142.5937  169.5833 C.ar    1  UNL1        0.1208
      9 N         139.4269  141.6630  170.4822 N.ar    1  UNL1       -0.2293
     10 C         139.1067  140.4230  169.7012 C.ar    1  UNL1        0.1188
     11 C         139.6676  140.5874  168.3198 C.ar    1  UNL1        0.0981
     12 N         140.3346  141.9290  168.2470 N.ar    1  UNL1       -0.3155
     13 C         141.0284  142.5048  167.0482 C.3     1  UNL1        0.0868
     14 C         142.5187  142.3942  166.9192 C.3     1  UNL1        0.0245
     15 C         140.2319  143.1912  165.9784 C.3     1  UNL1        0.0245
     16 N         141.9049  137.9747  164.4251 N.pl3   1  UNL1       -0.2825
     17 H         142.3634  137.1087  164.5210 H       1  UNL1        0.1551
     18 C         142.4150  138.9890  163.4449 C.ar    1  UNL1        0.0505
     19 C         141.4503  139.8632  162.6997 C.ar    1  UNL1        0.0148
     20 C         141.9605  140.8775  161.7195 C.ar    1  UNL1        0.0058
     21 C         143.4353  141.0176  161.4844 C.ar    1  UNL1        0.0537
     22 C         144.4000  140.1435  162.2295 C.ar    1  UNL1        0.0058
     23 C         143.8898  139.1291  163.2098 C.ar    1  UNL1        0.0148
     24 C         143.9454  142.0320  160.5041 C.2     1  UNL1        0.2491
     25 O         144.2324  143.4333  160.9558 O.2     1  UNL1       -0.2699
     26 N         144.1686  141.6451  159.0722 N.am    1  UNL1       -0.2726
     27 C         144.6787  142.6594  158.0920 C.3     1  UNL1        0.1152
     28 C         143.8816  140.2438  158.6204 C.3     1  UNL1        0.1152
@<TRIPOS>BOND
     1     7     8    1
     2     8     9   ar
     3     9    10   ar
     4    10    11   ar
     5    11     1    1
     6     1     2   ar
     7     2     3   ar
     8     3     4   ar
     9     4     5   ar
    10     5    16    1
    11    16    18    1
    12    18    19   ar
    13    19    20   ar
    14    20    21   ar
    15    21    24    1
    16    24    25    2
    17    24    26   am
    18    26    27    1
    19    26    28    1
    20    21    22   ar
    21    22    23   ar
    22     5     6   ar
    23    11    12   ar
    24    12    13    1
    25    13    14    1
    26    13    15    1
    27    12     8   ar
    28     6     1   ar
    29    23    18   ar
    30    16    17    1
@<TRIPOS>MOLECULE
*****
 28 30 0 0 0
SMALL
GASTEIGER

@<TRIPOS>ATOM
      1 C         142.1224  140.8677  160.5413 C.ar    1  UNL1        0.1030
      2 C         142.3302  140.6444  159.0727 C.ar    1  UNL1        0.0414
      3 C         141.4277  139.7115  158.3209 C.ar    1  UNL1        0.1034
      4 N         140.3174  139.0020  159.0377 N.ar    1  UNL1       -0.2120
      5 C         140.1096  139.2254  160.5064 C.ar    1  UNL1        0.2207
      6 N         141.0121  140.1582  161.2581 N.ar    1  UNL1       -0.2120
      7 C         143.9061  145.0374  163.2457 C.3     1  UNL1        0.0718
      8 C         143.8448  143.7172  162.5362 C.ar    1  UNL1        0.1208
      9 N         144.9827  142.7551  162.3640 N.ar    1  UNL1       -0.2293
     10 C         144.4760  141.5707  161.5957 C.ar    1  UNL1        0.1188
     11 C         143.0249  141.8007  161.2931 C.ar    1  UNL1        0.0981
     12 N         142.6348  143.1273  161.8744 N.ar    1  UNL1       -0.3155
     13 C         141.2738  143.7540  161.8059 C.3     1  UNL1        0.0868
     14 C         140.2087  143.3426  162.7786 C.3     1  UNL1        0.0245
     15 C         140.9778  144.7923  160.7644 C.3     1  UNL1        0.0245
     16 N         138.9993  138.5158  161.2232 N.pl3   1  UNL1       -0.2825
     17 H         138.3703  137.9505  160.7193 H       1  UNL1        0.1551
     18 C         138.8475  138.6677  162.7077 C.ar    1  UNL1        0.0505
     19 C         138.2162  139.9048  163.2744 C.ar    1  UNL1        0.0148
     20 C         138.0643  140.0566  164.7590 C.ar    1  UNL1        0.0058
     21 C         138.5438  138.9715  165.6768 C.ar    1  UNL1        0.0537
     22 C         139.1751  137.7344  165.1102 C.ar    1  UNL1        0.0058
     23 C         139.3270  137.5825  163.6256 C.ar    1  UNL1        0.0148
     24 C         138.3919  139.1234  167.1614 C.2     1  UNL1        0.2491
     25 O         137.2959  138.3953  167.8816 O.2     1  UNL1       -0.2699
     26 N         139.3360  140.0033  167.9258 N.am    1  UNL1       -0.2726
     27 C         139.1841  140.1552  169.4103 C.3     1  UNL1        0.1152
     28 C         140.4321  140.7314  167.2056 C.3     1  UNL1        0.1152
@<TRIPOS>BOND
     1     7     8    1
     2     8     9   ar
     3     9    10   ar
     4    10    11   ar
     5    11     1    1
     6     1     2   ar
     7     2     3   ar
     8     3     4   ar
     9     4     5   ar
    10     5    16    1
    11    16    18    1
    12    18    19   ar
    13    19    20   ar
    14    20    21   ar
    15    21    24    1
    16    24    25    2
    17    24    26   am
    18    26    27    1
    19    26    28    1
    20    21    22   ar
    21    22    23   ar
    22     5     6   ar
    23    11    12   ar
    24    12    13    1
    25    13    14    1
    26    13    15    1
    27    12     8   ar
    28     6     1   ar
    29    23    18   ar
    30    16    17    1
@<TRIPOS>MOLECULE
*****
 28 30 0 0 0
SMALL
GASTEIGER

@<TRIPOS>ATOM
      1 C         141.2492  141.0224  159.9718 C.ar    1  UNL1        0.1030
      2 C         141.5215  140.6210  158.5524 C.ar    1  UNL1        0.0414
      3 C         140.9444  139.3474  158.0094 C.ar    1  UNL1        0.1034
      4 N         140.0950  138.4753  158.8857 N.ar    1  UNL1       -0.2120
      5 C         139.8228  138.8767  160.3051 C.ar    1  UNL1        0.2207
      6 N         140.3999  140.1503  160.8481 N.ar    1  UNL1       -0.2120
      7 C         144.0320  144.4320  162.8893 C.3     1  UNL1        0.0718
      8 C         143.1054  143.8632  161.8559 C.ar    1  UNL1        0.1208
      9 N         142.3233  144.6486  160.8452 N.ar    1  UNL1       -0.2293
     10 C         141.5328  143.6800  160.0164 C.ar    1  UNL1        0.1188
     11 C         141.8263  142.2960  160.5149 C.ar    1  UNL1        0.0981
     12 N         142.7983  142.4093  161.6517 N.ar    1  UNL1       -0.3155
     13 C         143.3638  141.2688  162.4452 C.3     1  UNL1        0.0868
     14 C         142.7189  140.8609  163.7365 C.3     1  UNL1        0.0245
     15 C         144.5744  140.5363  161.9472 C.3     1  UNL1        0.0245
     16 N         138.9735  138.0046  161.1815 N.pl3   1  UNL1       -0.2825
     17 H         138.4830  137.2447  160.7925 H       1  UNL1        0.1551
     18 C         138.8713  138.2902  162.6504 C.ar    1  UNL1        0.0505
     19 C         139.4962  137.3538  163.6418 C.ar    1  UNL1        0.0148
     20 C         139.3941  137.6394  165.1108 C.ar    1  UNL1        0.0058
     21 C         138.6671  138.8614  165.5885 C.ar    1  UNL1        0.0537
     22 C         138.0422  139.7977  164.5972 C.ar    1  UNL1        0.0058
     23 C         138.1443  139.5121  163.1282 C.ar    1  UNL1        0.0148
     24 C         138.5650  139.1469  167.0576 C.2     1  UNL1        0.2491
     25 O         137.4748  138.5142  167.8706 O.2     1  UNL1       -0.2699
     26 N         139.5531  140.0652  167.7135 N.am    1  UNL1       -0.2726
     27 C         139.4509  140.3508  169.1825 C.3     1  UNL1        0.1152
     28 C         140.6433  140.6980  166.9005 C.3     1  UNL1        0.1152
@<TRIPOS>BOND
     1     7     8    1
     2     8     9   ar
     3     9    10   ar
     4    10    11   ar
     5    11     1    1
     6     1     2   ar
     7     2     3   ar
     8     3     4   ar
     9     4     5   ar
    10     5    16    1
    11    16    18    1
    12    18    19   ar
    13    19    20   ar
    14    20    21   ar
    15    21    24    1
    16    24    25    2
    17    24    26   am
    18    26    27    1
    19    26    28    1
    20    21    22   ar
    21    22    23   ar
    22     5     6   ar
    23    11    12   ar
    24    12    13    1
    25    13    14    1
    26    13    15    1
    27    12     8   ar
    28     6     1   ar
    29    23    18   ar
    30    16    17    1
@<TRIPOS>MOLECULE
*****
 28 30 0 0 0
SMALL
GASTEIGER

@<TRIPOS>ATOM
      1 C         140.8919  139.8956  166.4281 C.ar    1  UNL1        0.1030
      2 C         139.4772  139.7809  166.9133 C.ar    1  UNL1        0.0414
      3 C         138.5389  138.8063  166.2654 C.ar    1  UNL1        0.1034
      4 N         139.0153  137.9465  165.1324 N.ar    1  UNL1       -0.2120
      5 C         140.4300  138.0612  164.6473 C.ar    1  UNL1        0.2207
      6 N         141.3683  139.0358  165.2951 N.ar    1  UNL1       -0.2120
      7 C         143.8294  142.4030  170.0289 C.3     1  UNL1        0.0718
      8 C         143.1805  142.0227  168.7311 C.ar    1  UNL1        0.1208
      9 N         143.3680  142.7172  167.4147 N.ar    1  UNL1       -0.2293
     10 C         142.5335  142.0048  166.3919 C.ar    1  UNL1        0.1188
     11 C         141.8303  140.8702  167.0760 C.ar    1  UNL1        0.0981
     12 N         142.2301  140.8813  168.5217 N.ar    1  UNL1       -0.3155
     13 C         141.7618  139.9197  169.5734 C.3     1  UNL1        0.0868
     14 C         142.5652  138.6899  169.8765 C.3     1  UNL1        0.0245
     15 C         140.4899  140.1880  170.3220 C.3     1  UNL1        0.0245
     16 N         140.9064  137.2014  163.5142 N.pl3   1  UNL1       -0.2825
     17 H         140.7978  136.2239  163.5587 H       1  UNL1        0.1551
     18 C         141.5482  137.8308  162.3135 C.ar    1  UNL1        0.0505
     19 C         140.6973  138.3314  161.1841 C.ar    1  UNL1        0.0148
     20 C         141.3391  138.9608  159.9834 C.ar    1  UNL1        0.0058
     21 C         142.8318  139.0897  159.9119 C.ar    1  UNL1        0.0537
     22 C         143.6827  138.5892  161.0412 C.ar    1  UNL1        0.0058
     23 C         143.0409  137.9597  162.2420 C.ar    1  UNL1        0.0148
     24 C         143.4736  139.7192  158.7111 C.2     1  UNL1        0.2491
     25 O         143.7255  138.9006  157.4797 O.2     1  UNL1       -0.2699
     26 N         143.8635  141.1673  158.7417 N.am    1  UNL1       -0.2726
     27 C         144.5053  141.7967  157.5409 C.3     1  UNL1        0.1152
     28 C         143.6117  141.9860  159.9731 C.3     1  UNL1        0.1152
@<TRIPOS>BOND
     1     7     8    1
     2     8     9   ar
     3     9    10   ar
     4    10    11   ar
     5    11     1    1
     6     1     2   ar
     7     2     3   ar
     8     3     4   ar
     9     4     5   ar
    10     5    16    1
    11    16    18    1
    12    18    19   ar
    13    19    20   ar
    14    20    21   ar
    15    21    24    1
    16    24    25    2
    17    24    26   am
    18    26    27    1
    19    26    28    1
    20    21    22   ar
    21    22    23   ar
    22     5     6   ar
    23    11    12   ar
    24    12    13    1
    25    13    14    1
    26    13    15    1
    27    12     8   ar
    28     6     1   ar
    29    23    18   ar
    30    16    17    1
@<TRIPOS>MOLECULE
*****
 28 30 0 0 0
SMALL
GASTEIGER

@<TRIPOS>ATOM
      1 C         142.2013  140.9757  166.0620 C.ar    1  UNL1        0.1030
      2 C         142.6212  142.3916  166.3247 C.ar    1  UNL1        0.0414
      3 C         143.8098  142.9657  165.6124 C.ar    1  UNL1        0.1034
      4 N         144.5784  142.1241  164.6373 N.ar    1  UNL1       -0.2120
      5 C         144.1585  140.7082  164.3746 C.ar    1  UNL1        0.2207
      6 N         142.9699  140.1341  165.0869 N.ar    1  UNL1       -0.2120
      7 C         137.6271  138.5198  167.0245 C.3     1  UNL1        0.0718
      8 C         138.9101  139.2726  167.2168 C.ar    1  UNL1        0.1208
      9 N         139.4570  139.7632  168.5247 N.ar    1  UNL1       -0.2293
     10 C         140.7564  140.4608  168.2512 C.ar    1  UNL1        0.1188
     11 C         141.0126  140.4015  166.7744 C.ar    1  UNL1        0.0981
     12 N         139.8716  139.6672  166.1352 N.ar    1  UNL1       -0.3155
     13 C         139.7187  139.3781  164.6713 C.3     1  UNL1        0.0868
     14 C         140.0892  138.0290  164.1304 C.3     1  UNL1        0.0245
     15 C         139.1953  140.4383  163.7481 C.3     1  UNL1        0.0245
     16 N         144.9271  139.8666  163.3995 N.pl3   1  UNL1       -0.2825
     17 H         145.8520  139.5978  163.6033 H       1  UNL1        0.1551
     18 C         144.2866  139.4344  162.1138 C.ar    1  UNL1        0.0505
     19 C         143.8155  138.0198  161.9490 C.ar    1  UNL1        0.0148
     20 C         143.1750  137.5876  160.6634 C.ar    1  UNL1        0.0058
     21 C         143.0054  138.5699  159.5426 C.ar    1  UNL1        0.0537
     22 C         143.4764  139.9845  159.7074 C.ar    1  UNL1        0.0058
     23 C         144.1170  140.4167  160.9930 C.ar    1  UNL1        0.0148
     24 C         142.3648  138.1377  158.2569 C.2     1  UNL1        0.2491
     25 O         143.2136  137.6260  157.1310 O.2     1  UNL1       -0.2699
     26 N         140.8755  138.2171  158.0972 N.am    1  UNL1       -0.2726
     27 C         140.2349  137.7849  156.8116 C.3     1  UNL1        0.1152
     28 C         140.0267  138.7288  159.2231 C.3     1  UNL1        0.1152
@<TRIPOS>BOND
     1     7     8    1
     2     8     9   ar
     3     9    10   ar
     4    10    11   ar
     5    11     1    1
     6     1     2   ar
     7     2     3   ar
     8     3     4   ar
     9     4     5   ar
    10     5    16    1
    11    16    18    1
    12    18    19   ar
    13    19    20   ar
    14    20    21   ar
    15    21    24    1
    16    24    25    2
    17    24    26   am
    18    26    27    1
    19    26    28    1
    20    21    22   ar
    21    22    23   ar
    22     5     6   ar
    23    11    12   ar
    24    12    13    1
    25    13    14    1
    26    13    15    1
    27    12     8   ar
    28     6     1   ar
    29    23    18   ar
    30    16    17    1
