@<TRIPOS>MOLECULE
*****
 20 21 0 0 0
SMALL
GASTEIGER

@<TRIPOS>ATOM
      1 C         138.9810  139.5488  166.3278 C.2     1  UNL1        0.1535
      2 N         138.7445  139.2386  167.7762 N.2     1  UNL1       -0.2470
      3 C         139.4544  140.2762  168.5944 C.3     1  UNL1        0.1720
      4 C         139.5732  140.4775  170.0760 C.3     1  UNL1        0.1653
      5 O         138.8979  139.5260  171.0187 O.3     1  UNL1       -0.3798
      6 C         140.3673  141.6304  170.6150 C.3     1  UNL1        0.1688
      7 O         140.4860  141.8317  172.0967 O.3     1  UNL1       -0.3794
      8 C         141.0425  142.5818  169.6723 C.3     1  UNL1        0.1749
      9 O         140.9237  142.3805  168.1906 O.3     1  UNL1       -0.3402
     10 C         140.1297  141.2277  167.6517 C.3     1  UNL1        0.1938
     11 S         139.8371  140.7781  166.2508 S.3     1  UNL1       -0.0497
     12 H         139.0737  139.7976  171.9332 H       1  UNL1        0.2105
     13 H         139.9944  141.1344  172.5582 H       1  UNL1        0.2105
     14 N         138.4540  138.7670  165.1611 N.pl3   1  UNL1       -0.3135
     15 H         137.6311  139.0574  164.7054 H       1  UNL1        0.1487
     16 C         140.1964  137.6504  163.5904 C.3     1  UNL1        0.0230
     17 C         139.1807  137.5427  164.6890 C.3     1  UNL1        0.0887
     18 C         141.8366  143.7346  170.2113 C.3     1  UNL1        0.1742
     19 O         143.2266  143.5111  170.7289 O.3     1  UNL1       -0.3484
     20 C         144.1416  142.5498  170.0300 C.3     1  UNL1        0.1742
@<TRIPOS>BOND
     1    16    17    1
     2    17    14    1
     3    14     1    1
     4     1     2    2
     5     3     2    1
     6     3     4    1
     7     4     5    1
     8     4     6    1
     9     6     7    1
    10     6     8    1
    11     8    18    1
    12    18    19    1
    13    19    20    1
    14     8     9    1
    15    10     9    1
    16    10    11    1
    17    11     1    1
    18    10     3    1
    19    14    15    1
    20     5    12    1
    21     7    13    1
@<TRIPOS>MOLECULE
*****
 20 21 0 0 0
SMALL
GASTEIGER

@<TRIPOS>ATOM
      1 C         138.5856  140.9667  164.9951 C.2     1  UNL1        0.1535
      2 N         138.0817  142.1264  164.1881 N.2     1  UNL1       -0.2470
      3 C         139.2269  143.0694  163.9665 C.3     1  UNL1        0.1720
      4 C         139.3229  144.3788  163.2411 C.3     1  UNL1        0.1653
      5 O         138.1112  144.9557  162.5711 O.3     1  UNL1       -0.3798
      6 C         140.6307  145.1115  163.1858 C.3     1  UNL1        0.1688
      7 O         140.7268  146.4209  162.4605 O.3     1  UNL1       -0.3794
      8 C         141.8425  144.5346  163.8558 C.3     1  UNL1        0.1749
      9 O         141.7464  143.2251  164.5812 O.3     1  UNL1       -0.3402
     10 C         140.4387  142.4926  164.6365 C.3     1  UNL1        0.1938
     11 S         140.0423  141.1930  165.2722 S.3     1  UNL1       -0.0497
     12 H         138.3442  145.7988  162.1519 H       1  UNL1        0.2105
     13 H         139.8606  146.6483  162.0877 H       1  UNL1        0.2105
     14 N         137.7751  139.7877  165.4458 N.pl3   1  UNL1       -0.3135
     15 H         136.9925  139.4994  164.9226 H       1  UNL1        0.1487
     16 C         137.3494  137.8660  167.1416 C.3     1  UNL1        0.0230
     17 C         138.1569  139.0481  166.6936 C.3     1  UNL1        0.0887
     18 C         143.1502  145.2672  163.8005 C.3     1  UNL1        0.1742
     19 O         144.1053  145.0126  162.6723 O.3     1  UNL1       -0.3484
     20 C         144.3282  143.6136  162.1795 C.3     1  UNL1        0.1742
@<TRIPOS>BOND
     1    16    17    1
     2    17    14    1
     3    14     1    1
     4     1     2    2
     5     3     2    1
     6     3     4    1
     7     4     5    1
     8     4     6    1
     9     6     7    1
    10     6     8    1
    11     8    18    1
    12    18    19    1
    13    19    20    1
    14     8     9    1
    15    10     9    1
    16    10    11    1
    17    11     1    1
    18    10     3    1
    19    14    15    1
    20     5    12    1
    21     7    13    1
@<TRIPOS>MOLECULE
*****
 20 21 0 0 0
SMALL
GASTEIGER

@<TRIPOS>ATOM
      1 C         139.7866  140.7299  166.8180 C.2     1  UNL1        0.1535
      2 N         138.7059  140.5350  165.7961 N.2     1  UNL1       -0.2470
      3 C         138.7412  141.7029  164.8555 C.3     1  UNL1        0.1720
      4 C         137.9119  142.0500  163.6548 C.3     1  UNL1        0.1653
      5 O         136.8094  141.1333  163.2144 O.3     1  UNL1       -0.3798
      6 C         138.1851  143.3139  162.8946 C.3     1  UNL1        0.1688
      7 O         137.3558  143.6611  161.6939 O.3     1  UNL1       -0.3794
      8 C         139.2876  144.2307  163.3350 C.3     1  UNL1        0.1749
      9 O         140.1170  143.8835  164.5358 O.3     1  UNL1       -0.3402
     10 C         139.8438  142.6196  165.2960 C.3     1  UNL1        0.1938
     11 S         140.4898  142.0182  166.5088 S.3     1  UNL1       -0.0497
     12 H         136.3760  141.5028  162.4292 H       1  UNL1        0.2105
     13 H         136.6927  142.9683  161.5476 H       1  UNL1        0.2105
     14 N         140.1077  139.7997  167.9501 N.pl3   1  UNL1       -0.3135
     15 H         140.3741  138.8706  167.7633 H       1  UNL1        0.1487
     16 C         138.6890  140.3902  170.0450 C.3     1  UNL1        0.0230
     17 C         140.0228  140.2853  169.3668 C.3     1  UNL1        0.0887
     18 C         139.5609  145.4945  162.5748 C.3     1  UNL1        0.1742
     19 O         139.4928  145.4981  161.0764 O.3     1  UNL1       -0.3484
     20 C         140.6156  144.9114  160.2732 C.3     1  UNL1        0.1742
@<TRIPOS>BOND
     1    16    17    1
     2    17    14    1
     3    14     1    1
     4     1     2    2
     5     3     2    1
     6     3     4    1
     7     4     5    1
     8     4     6    1
     9     6     7    1
    10     6     8    1
    11     8    18    1
    12    18    19    1
    13    19    20    1
    14     8     9    1
    15    10     9    1
    16    10    11    1
    17    11     1    1
    18    10     3    1
    19    14    15    1
    20     5    12    1
    21     7    13    1
@<TRIPOS>MOLECULE
*****
 20 21 0 0 0
SMALL
GASTEIGER

@<TRIPOS>ATOM
      1 C         139.8313  141.0672  166.9891 C.2     1  UNL1        0.1535
      2 N         138.7748  140.7568  165.9705 N.2     1  UNL1       -0.2470
      3 C         138.7869  141.8490  164.9424 C.3     1  UNL1        0.1720
      4 C         137.9666  142.0735  163.7069 C.3     1  UNL1        0.1653
      5 O         136.9026  141.0880  163.3237 O.3     1  UNL1       -0.3798
      6 C         138.2102  143.2835  162.8544 C.3     1  UNL1        0.1688
      7 O         137.3898  143.5080  161.6189 O.3     1  UNL1       -0.3794
      8 C         139.2741  144.2690  163.2376 C.3     1  UNL1        0.1749
      9 O         140.0945  144.0444  164.4732 O.3     1  UNL1       -0.3402
     10 C         139.8509  142.8345  165.3256 C.3     1  UNL1        0.1938
     11 S         140.4963  142.3513  166.5904 S.3     1  UNL1       -0.0497
     12 H         136.4702  141.3806  162.5062 H       1  UNL1        0.2105
     13 H         136.7527  142.7836  161.5178 H       1  UNL1        0.2105
     14 N         140.1643  140.2390  168.1945 N.pl3   1  UNL1       -0.3135
     15 H         139.4457  139.7965  168.7015 H       1  UNL1        0.1487
     16 C         142.6148  139.5567  167.6659 C.3     1  UNL1        0.0230
     17 C         141.5921  140.0851  168.6276 C.3     1  UNL1        0.0887
     18 C         139.5177  145.4790  162.3852 C.3     1  UNL1        0.1742
     19 O         139.5381  145.3519  160.8907 O.3     1  UNL1       -0.3484
     20 C         140.8429  145.1853  160.1699 C.3     1  UNL1        0.1742
@<TRIPOS>BOND
     1    16    17    1
     2    17    14    1
     3    14     1    1
     4     1     2    2
     5     3     2    1
     6     3     4    1
     7     4     5    1
     8     4     6    1
     9     6     7    1
    10     6     8    1
    11     8    18    1
    12    18    19    1
    13    19    20    1
    14     8     9    1
    15    10     9    1
    16    10    11    1
    17    11     1    1
    18    10     3    1
    19    14    15    1
    20     5    12    1
    21     7    13    1
@<TRIPOS>MOLECULE
*****
 20 21 0 0 0
SMALL
GASTEIGER

@<TRIPOS>ATOM
      1 C         141.3610  140.9005  167.7419 C.2     1  UNL1        0.1535
      2 N         140.3777  140.0154  167.0350 N.2     1  UNL1       -0.2470
      3 C         139.6070  140.8608  166.0649 C.3     1  UNL1        0.1720
      4 C         138.5091  140.5307  165.0976 C.3     1  UNL1        0.1653
      5 O         138.0022  139.1230  164.9903 O.3     1  UNL1       -0.3798
      6 C         137.9180  141.6083  164.2376 C.3     1  UNL1        0.1688
      7 O         136.8201  141.2781  163.2704 O.3     1  UNL1       -0.3794
      8 C         138.4249  143.0159  164.3449 C.3     1  UNL1        0.1749
      9 O         139.5229  143.3460  165.3122 O.3     1  UNL1       -0.3402
     10 C         140.1139  142.2684  166.1722 C.3     1  UNL1        0.1938
     11 S         141.1979  142.2930  167.2087 S.3     1  UNL1       -0.0497
     12 H         137.2984  139.0827  164.3240 H       1  UNL1        0.2105
     13 H         136.6131  140.3322  163.3268 H       1  UNL1        0.2105
     14 N         142.3361  140.4690  168.7969 N.pl3   1  UNL1       -0.3135
     15 H         142.7386  139.5713  168.7576 H       1  UNL1        0.1487
     16 C         143.8495  142.3529  169.7511 C.3     1  UNL1        0.0230
     17 C         142.6980  141.4050  169.9117 C.3     1  UNL1        0.0887
     18 C         137.8339  144.0935  163.4850 C.3     1  UNL1        0.1742
     19 O         137.8814  143.9711  161.9907 O.3     1  UNL1       -0.3484
     20 C         139.1409  143.5159  161.3152 C.3     1  UNL1        0.1742
@<TRIPOS>BOND
     1    16    17    1
     2    17    14    1
     3    14     1    1
     4     1     2    2
     5     3     2    1
     6     3     4    1
     7     4     5    1
     8     4     6    1
     9     6     7    1
    10     6     8    1
    11     8    18    1
    12    18    19    1
    13    19    20    1
    14     8     9    1
    15    10     9    1
    16    10    11    1
    17    11     1    1
    18    10     3    1
    19    14    15    1
    20     5    12    1
    21     7    13    1
@<TRIPOS>MOLECULE
*****
 20 21 0 0 0
SMALL
GASTEIGER

@<TRIPOS>ATOM
      1 C         138.5058  143.8344  162.4590 C.2     1  UNL1        0.1535
      2 N         137.8012  142.8523  161.5707 N.2     1  UNL1       -0.2470
      3 C         138.0773  141.4736  162.0933 C.3     1  UNL1        0.1720
      4 C         137.6448  140.1167  161.6227 C.3     1  UNL1        0.1653
      5 O         136.7696  139.9866  160.4114 O.3     1  UNL1       -0.3798
      6 C         138.0875  138.8896  162.3633 C.3     1  UNL1        0.1688
      7 O         137.6550  137.5326  161.8927 O.3     1  UNL1       -0.3794
      8 C         138.9627  139.0196  163.5746 C.3     1  UNL1        0.1749
      9 O         139.3952  140.3767  164.0452 O.3     1  UNL1       -0.3402
     10 C         138.9525  141.6037  163.3045 C.3     1  UNL1        0.1938
     11 S         139.2173  143.0627  163.5305 S.3     1  UNL1       -0.0497
     12 H         136.5845  139.0490  160.2454 H       1  UNL1        0.2105
     13 H         137.0978  137.6263  161.1042 H       1  UNL1        0.2105
     14 N         138.4999  145.3263  162.3031 N.pl3   1  UNL1       -0.3135
     15 H         137.7234  145.8499  162.6066 H       1  UNL1        0.1487
     16 C         140.6507  145.2446  160.8480 C.3     1  UNL1        0.0230
     17 C         139.6771  146.0204  161.6848 C.3     1  UNL1        0.0887
     18 C         139.4054  137.7927  164.3152 C.3     1  UNL1        0.1742
     19 O         140.8043  137.2785  164.1462 O.3     1  UNL1       -0.3484
     20 C         141.9448  137.9667  164.8359 C.3     1  UNL1        0.1742
@<TRIPOS>BOND
     1    16    17    1
     2    17    14    1
     3    14     1    1
     4     1     2    2
     5     3     2    1
     6     3     4    1
     7     4     5    1
     8     4     6    1
     9     6     7    1
    10     6     8    1
    11     8    18    1
    12    18    19    1
    13    19    20    1
    14     8     9    1
    15    10     9    1
    16    10    11    1
    17    11     1    1
    18    10     3    1
    19    14    15    1
    20     5    12    1
    21     7    13    1
@<TRIPOS>MOLECULE
*****
 20 21 0 0 0
SMALL
GASTEIGER

@<TRIPOS>ATOM
      1 C         142.0214  144.1896  161.1622 C.2     1  UNL1        0.1535
      2 N         143.4443  143.7807  161.4036 N.2     1  UNL1       -0.2470
      3 C         143.4325  142.4793  162.1494 C.3     1  UNL1        0.1720
      4 C         144.5392  141.6033  162.6569 C.3     1  UNL1        0.1653
      5 O         145.9694  141.9987  162.4373 O.3     1  UNL1       -0.3798
      6 C         144.2158  140.3317  163.3841 C.3     1  UNL1        0.1688
      7 O         145.3226  139.4557  163.8916 O.3     1  UNL1       -0.3794
      8 C         142.7856  139.9363  163.6037 C.3     1  UNL1        0.1749
      9 O         141.6789  140.8125  163.0961 O.3     1  UNL1       -0.3402
     10 C         142.0023  142.0839  162.3690 C.3     1  UNL1        0.1938
     11 S         141.1302  143.1409  161.7589 S.3     1  UNL1       -0.0497
     12 H         146.5534  141.3280  162.8245 H       1  UNL1        0.2105
     13 H         146.1784  139.8536  163.6677 H       1  UNL1        0.2105
     14 N         141.5692  145.4295  160.4494 N.pl3   1  UNL1       -0.3135
     15 H         141.9424  146.3053  160.7001 H       1  UNL1        0.1487
     16 C         140.9370  145.6398  157.9382 C.3     1  UNL1        0.0230
     17 C         140.5483  145.3350  159.3545 C.3     1  UNL1        0.0887
     18 C         142.4622  138.6649  164.3308 C.3     1  UNL1        0.1742
     19 O         143.2704  138.2588  165.5275 O.3     1  UNL1       -0.3484
     20 C         143.0132  138.9000  166.8589 C.3     1  UNL1        0.1742
@<TRIPOS>BOND
     1    16    17    1
     2    17    14    1
     3    14     1    1
     4     1     2    2
     5     3     2    1
     6     3     4    1
     7     4     5    1
     8     4     6    1
     9     6     7    1
    10     6     8    1
    11     8    18    1
    12    18    19    1
    13    19    20    1
    14     8     9    1
    15    10     9    1
    16    10    11    1
    17    11     1    1
    18    10     3    1
    19    14    15    1
    20     5    12    1
    21     7    13    1
@<TRIPOS>MOLECULE
*****
 20 21 0 0 0
SMALL
GASTEIGER

@<TRIPOS>ATOM
      1 C         138.2775  140.9375  164.3596 C.2     1  UNL1        0.1535
      2 N         138.6237  142.3402  164.7629 N.2     1  UNL1       -0.2470
      3 C         139.0912  143.0723  163.5400 C.3     1  UNL1        0.1720
      4 C         139.5616  144.4813  163.3323 C.3     1  UNL1        0.1653
      5 O         139.6188  145.4316  164.4915 O.3     1  UNL1       -0.3798
      6 C         139.9749  144.9402  161.9652 C.3     1  UNL1        0.1688
      7 O         140.4453  146.3493  161.7575 O.3     1  UNL1       -0.3794
      8 C         139.9177  143.9900  160.8060 C.3     1  UNL1        0.1749
      9 O         139.4473  142.5808  161.0138 O.3     1  UNL1       -0.3402
     10 C         139.0340  142.1220  162.3808 C.3     1  UNL1        0.1938
     11 S         138.5311  140.8027  162.8873 S.3     1  UNL1       -0.0497
     12 H         139.9422  146.2939  164.1870 H       1  UNL1        0.2105
     13 H         140.4213  146.8260  162.6019 H       1  UNL1        0.2105
     14 N         137.7673  139.8591  165.2688 N.pl3   1  UNL1       -0.3135
     15 H         136.8082  139.6374  165.2797 H       1  UNL1        0.1487
     16 C         139.4879  139.8580  167.2155 C.3     1  UNL1        0.0230
     17 C         138.7185  139.1185  166.1614 C.3     1  UNL1        0.0887
     18 C         140.3309  144.4488  159.4390 C.3     1  UNL1        0.1742
     19 O         141.5959  145.2353  159.2624 O.3     1  UNL1       -0.3484
     20 C         141.9533  145.7882  157.9147 C.3     1  UNL1        0.1742
@<TRIPOS>BOND
     1    16    17    1
     2    17    14    1
     3    14     1    1
     4     1     2    2
     5     3     2    1
     6     3     4    1
     7     4     5    1
     8     4     6    1
     9     6     7    1
    10     6     8    1
    11     8    18    1
    12    18    19    1
    13    19    20    1
    14     8     9    1
    15    10     9    1
    16    10    11    1
    17    11     1    1
    18    10     3    1
    19    14    15    1
    20     5    12    1
    21     7    13    1
@<TRIPOS>MOLECULE
*****
 20 21 0 0 0
SMALL
GASTEIGER

@<TRIPOS>ATOM
      1 C         139.7323  144.3214  161.3265 C.2     1  UNL1        0.1535
      2 N         138.5071  143.5183  161.6489 N.2     1  UNL1       -0.2470
      3 C         138.8263  142.6346  162.8181 C.3     1  UNL1        0.1720
      4 C         138.0055  141.6293  163.5700 C.3     1  UNL1        0.1653
      5 O         136.5829  141.3724  163.1697 O.3     1  UNL1       -0.3798
      6 C         138.6072  140.8808  164.7223 C.3     1  UNL1        0.1688
      7 O         137.7864  139.8754  165.4742 O.3     1  UNL1       -0.3794
      8 C         140.0298  141.1377  165.1227 C.3     1  UNL1        0.1749
      9 O         140.8506  142.1431  164.3707 O.3     1  UNL1       -0.3402
     10 C         140.2489  142.8916  163.2185 C.3     1  UNL1        0.1938
     11 S         140.8088  143.9340  162.2966 S.3     1  UNL1       -0.0497
     12 H         136.1991  140.6996  163.7537 H       1  UNL1        0.2105
     13 H         136.8969  139.8317  165.0898 H       1  UNL1        0.2105
     14 N         139.8588  145.3340  160.2271 N.pl3   1  UNL1       -0.3135
     15 H         139.6737  146.2837  160.4089 H       1  UNL1        0.1487
     16 C         141.3613  145.6284  158.1282 C.3     1  UNL1        0.0230
     17 C         140.2674  144.8996  158.8508 C.3     1  UNL1        0.0887
     18 C         140.6315  140.3892  166.2749 C.3     1  UNL1        0.1742
     19 O         140.4582  140.9010  167.6742 O.3     1  UNL1       -0.3484
     20 C         139.4808  140.2386  168.5994 C.3     1  UNL1        0.1742
@<TRIPOS>BOND
     1    16    17    1
     2    17    14    1
     3    14     1    1
     4     1     2    2
     5     3     2    1
     6     3     4    1
     7     4     5    1
     8     4     6    1
     9     6     7    1
    10     6     8    1
    11     8    18    1
    12    18    19    1
    13    19    20    1
    14     8     9    1
    15    10     9    1
    16    10    11    1
    17    11     1    1
    18    10     3    1
    19    14    15    1
    20     5    12    1
    21     7    13    1
