@<TRIPOS>MOLECULE
*****
 47 52 0 0 0
SMALL
GASTEIGER

@<TRIPOS>ATOM
      1 C         140.6145  137.3563  163.8508 C.3     1  UNL1        0.0320
      2 C         141.8546  138.1738  163.6413 C.3     1  UNL1        0.0932
      3 C         142.7324  138.5173  164.8082 C.3     1  UNL1        0.0286
      4 C         143.9725  139.3348  164.5987 C.3     1  UNL1        0.0193
      5 C         144.3348  139.8088  163.2224 C.3     1  UNL1        0.0700
      6 C         143.4570  139.4653  162.0556 C.3     1  UNL1        0.0193
      7 C         142.2169  138.6477  162.2651 C.3     1  UNL1        0.0286
      8 C         143.6454  139.3634  163.2878 C.3     1  UNL1        0.1562
      9 O         142.5240  138.6242  163.4772 O.3     1  UNL1       -0.3572
     10 N         145.5748  140.6263  163.0130 N.3     1  UNL1       -0.2926
     11 H         145.7638  140.6231  162.0107 H       1  UNL1        0.1236
     12 C         145.6125  142.0588  163.4561 C.3     1  UNL1        0.1152
     13 C         144.4051  142.9309  163.2785 C.ar    1  UNL1        0.0765
     14 C         143.7268  143.5260  164.4768 C.ar    1  UNL1        0.0193
     15 C         142.5194  144.3980  164.2992 C.ar    1  UNL1        0.0411
     16 C         141.9901  144.6749  162.9233 C.ar    1  UNL1        0.1708
     17 C         142.6683  144.0799  161.7250 C.ar    1  UNL1        0.1682
     18 N         143.8758  143.2078  161.9026 N.ar    1  UNL1       -0.2304
     19 N         142.1390  144.3569  160.3491 N.am    1  UNL1       -0.2639
     20 C         140.9315  145.2289  160.1715 C.2     1  UNL1        0.2718
     21 O         140.4023  145.5059  158.7955 O.2     1  UNL1       -0.2707
     22 C         140.2533  145.8240  161.3698 C.3     1  UNL1        0.2898
     23 O         140.7826  145.5470  162.7457 O.3     1  UNL1       -0.4628
     24 H         142.5841  143.9663  159.5626 H       1  UNL1        0.1565
     25 C         139.3664  138.0064  164.3701 C.3     1  UNL1        0.0327
     26 C         139.9251  142.1429  166.0515 C.ar    1  UNL1        0.2249
     27 C         139.3439  143.3273  165.3380 C.ar    1  UNL1        0.0593
     28 C         138.5763  143.1330  164.0640 C.ar    1  UNL1        0.0254
     29 C         138.3901  141.7542  163.5035 C.ar    1  UNL1        0.0990
     30 N         137.6226  141.5598  162.2295 N.ar    1  UNL1       -0.2400
     31 C         137.4363  140.1811  161.6690 C.ar    1  UNL1        0.1281
     32 C         138.0176  138.9965  162.3825 C.ar    1  UNL1        0.1566
     33 F         137.8314  137.6177  161.8220 F       1  UNL1       -0.2028
     34 C         138.7851  139.1909  163.6565 C.ar    1  UNL1        0.0261
     35 C         138.9714  140.5697  164.2170 C.ar    1  UNL1        0.1002
     36 N         139.7389  140.7641  165.4910 N.ar    1  UNL1       -0.2104
     37 O         140.6926  142.3372  167.3256 O.3     1  UNL1       -0.4600
     38 C         142.0979  141.8254  167.4401 C.3     1  UNL1        0.2133
     39 C         142.4942  140.9775  168.6123 C.3     1  UNL1        0.1232
     40 C         141.6015  140.8963  169.8151 C.3     1  UNL1        0.3336
     41 F         142.0887  142.2410  170.2673 F       1  UNL1       -0.1945
     42 F         141.1143  139.5517  169.3628 F       1  UNL1       -0.1945
     43 N         139.8951  139.5798  171.2659 N.am    1  UNL1       -0.3244
     44 C         140.7088  140.8152  171.0178 C.2     1  UNL1        0.2808
     45 O         140.6300  141.9695  171.9724 O.2     1  UNL1       -0.2695
     46 H         139.3092  139.5266  172.0553 H       1  UNL1        0.1451
     47 H         139.9468  138.8222  170.6393 H       1  UNL1        0.1451
@<TRIPOS>BOND
     1    43    44   am
     2    44    45    2
     3    44    40    1
     4    40    41    1
     5    40    42    1
     6    40    39    1
     7    39    38    1
     8    38    37    1
     9    37    26    1
    10    26    27   ar
    11    27    28   ar
    12    28    29   ar
    13    29    30   ar
    14    30    31   ar
    15    31    32   ar
    16    32    33    1
    17    32    34   ar
    18    34    25    1
    19    25     1    1
    20     1     2    1
    21     2     3    1
    22     3     4    1
    23     4     5    1
    24     5    10    1
    25    10    12    1
    26    12    13    1
    27    13    14   ar
    28    14    15   ar
    29    15    16   ar
    30    16    17   ar
    31    17    18   ar
    32    17    19    1
    33    19    20   am
    34    20    21    2
    35    20    22    1
    36    22    23    1
    37     5     6    1
    38     6     7    1
    39     5     8    1
    40     8     9    1
    41    34    35   ar
    42    35    36   ar
    43    36    26   ar
    44    35    29   ar
    45     7     2    1
    46     9     2    1
    47    18    13   ar
    48    23    16    1
    49    43    46    1
    50    43    47    1
    51    10    11    1
    52    19    24    1
@<TRIPOS>MOLECULE
*****
 47 52 0 0 0
SMALL
GASTEIGER

@<TRIPOS>ATOM
      1 C         140.5077  137.7543  164.5204 C.3     1  UNL1        0.0320
      2 C         141.7775  138.4848  164.1982 C.3     1  UNL1        0.0932
      3 C         142.4333  138.2960  162.8624 C.3     1  UNL1        0.0286
      4 C         143.7031  139.0265  162.5403 C.3     1  UNL1        0.0193
      5 C         144.3173  139.9460  163.5540 C.3     1  UNL1        0.0700
      6 C         143.6615  140.1348  164.8898 C.3     1  UNL1        0.0193
      7 C         142.3916  139.4042  165.2119 C.3     1  UNL1        0.0286
      8 C         143.6207  139.5672  163.7761 C.3     1  UNL1        0.1562
      9 O         142.4725  138.9066  164.0674 O.3     1  UNL1       -0.3572
     10 N         145.5871  140.6765  163.2319 N.3     1  UNL1       -0.2926
     11 H         146.0187  140.1856  162.4488 H       1  UNL1        0.1236
     12 C         145.5431  142.1293  162.8610 C.3     1  UNL1        0.1152
     13 C         144.5074  142.6261  161.8964 C.ar    1  UNL1        0.0765
     14 C         144.5201  142.1532  160.4729 C.ar    1  UNL1        0.0193
     15 C         143.4844  142.6500  159.5083 C.ar    1  UNL1        0.0411
     16 C         142.4359  143.6197  159.9672 C.ar    1  UNL1        0.1708
     17 C         142.4232  144.0925  161.3906 C.ar    1  UNL1        0.1682
     18 N         143.4590  143.5957  162.3553 N.ar    1  UNL1       -0.2304
     19 N         141.3748  145.0622  161.8495 N.am    1  UNL1       -0.2639
     20 C         140.3391  145.5590  160.8849 C.2     1  UNL1        0.2718
     21 O         139.2907  146.5287  161.3438 O.2     1  UNL1       -0.2707
     22 C         140.3518  145.0861  159.4614 C.3     1  UNL1        0.2898
     23 O         141.4002  144.1165  159.0025 O.3     1  UNL1       -0.4628
     24 H         141.3665  145.3726  162.7837 H       1  UNL1        0.1565
     25 C         139.2409  138.5214  164.7589 C.3     1  UNL1        0.0327
     26 C         139.2274  142.9992  165.2046 C.ar    1  UNL1        0.2249
     27 C         138.6554  143.8594  164.1170 C.ar    1  UNL1        0.0593
     28 C         138.0879  143.2270  162.8809 C.ar    1  UNL1        0.0254
     29 C         138.0924  141.7344  162.7323 C.ar    1  UNL1        0.0990
     30 N         137.5249  141.1020  161.4962 N.ar    1  UNL1       -0.2400
     31 C         137.5294  139.6095  161.3476 C.ar    1  UNL1        0.1281
     32 C         138.1014  138.7492  162.4352 C.ar    1  UNL1        0.1566
     33 F         138.1059  137.2566  162.2867 F       1  UNL1       -0.2028
     34 C         138.6689  139.3816  163.6714 C.ar    1  UNL1        0.0261
     35 C         138.6644  140.8743  163.8199 C.ar    1  UNL1        0.1002
     36 N         139.2319  141.5067  165.0560 N.ar    1  UNL1       -0.2104
     37 O         139.7949  143.6316  166.4407 O.3     1  UNL1       -0.4600
     38 C         140.6533  142.8250  167.3694 C.3     1  UNL1        0.2133
     39 C         140.3675  142.8215  168.8419 C.3     1  UNL1        0.1232
     40 C         139.9655  141.5479  169.5248 C.3     1  UNL1        0.3336
     41 F         140.3366  140.7719  168.2960 F       1  UNL1       -0.1945
     42 F         139.5944  142.3239  170.7537 F       1  UNL1       -0.1945
     43 N         140.6082  139.3915  170.8237 N.am    1  UNL1       -0.3244
     44 C         139.5635  140.2743  170.2077 C.2     1  UNL1        0.2808
     45 O         138.1169  139.8835  170.2747 O.2     1  UNL1       -0.2695
     46 H         140.3444  138.5556  171.2719 H       1  UNL1        0.1451
     47 H         141.5577  139.6480  170.7797 H       1  UNL1        0.1451
@<TRIPOS>BOND
     1    43    44   am
     2    44    45    2
     3    44    40    1
     4    40    41    1
     5    40    42    1
     6    40    39    1
     7    39    38    1
     8    38    37    1
     9    37    26    1
    10    26    27   ar
    11    27    28   ar
    12    28    29   ar
    13    29    30   ar
    14    30    31   ar
    15    31    32   ar
    16    32    33    1
    17    32    34   ar
    18    34    25    1
    19    25     1    1
    20     1     2    1
    21     2     3    1
    22     3     4    1
    23     4     5    1
    24     5    10    1
    25    10    12    1
    26    12    13    1
    27    13    14   ar
    28    14    15   ar
    29    15    16   ar
    30    16    17   ar
    31    17    18   ar
    32    17    19    1
    33    19    20   am
    34    20    21    2
    35    20    22    1
    36    22    23    1
    37     5     6    1
    38     6     7    1
    39     5     8    1
    40     8     9    1
    41    34    35   ar
    42    35    36   ar
    43    36    26   ar
    44    35    29   ar
    45     7     2    1
    46     9     2    1
    47    18    13   ar
    48    23    16    1
    49    43    46    1
    50    43    47    1
    51    10    11    1
    52    19    24    1
@<TRIPOS>MOLECULE
*****
 47 52 0 0 0
SMALL
GASTEIGER

@<TRIPOS>ATOM
      1 C         145.5785  142.3896  164.1306 C.3     1  UNL1        0.0320
      2 C         145.0023  141.2028  163.4169 C.3     1  UNL1        0.0932
      3 C         144.6848  139.9506  164.1793 C.3     1  UNL1        0.0286
      4 C         144.1087  138.7637  163.4656 C.3     1  UNL1        0.0193
      5 C         143.8501  138.8290  161.9895 C.3     1  UNL1        0.0700
      6 C         144.1676  140.0812  161.2271 C.3     1  UNL1        0.0193
      7 C         144.7437  141.2681  161.9409 C.3     1  UNL1        0.0286
      8 C         144.1669  139.5048  162.3370 C.3     1  UNL1        0.1562
      9 O         144.6878  140.5781  162.9824 O.3     1  UNL1       -0.3572
     10 N         143.2740  137.6421  161.2758 N.3     1  UNL1       -0.2926
     11 H         143.2456  136.8779  161.9507 H       1  UNL1        0.1236
     12 C         141.9087  137.7271  160.6602 C.3     1  UNL1        0.1152
     13 C         140.8041  138.4412  161.3812 C.ar    1  UNL1        0.0765
     14 C         139.9477  137.6993  162.3642 C.ar    1  UNL1        0.0193
     15 C         138.8430  138.4134  163.0852 C.ar    1  UNL1        0.0411
     16 C         138.5947  139.8693  162.8231 C.ar    1  UNL1        0.1708
     17 C         139.4510  140.6112  161.8401 C.ar    1  UNL1        0.1682
     18 N         140.5558  139.8971  161.1191 N.ar    1  UNL1       -0.2304
     19 N         139.2027  142.0671  161.5781 N.am    1  UNL1       -0.2639
     20 C         138.0981  142.7811  162.2990 C.2     1  UNL1        0.2718
     21 O         137.8498  144.2371  162.0370 O.2     1  UNL1       -0.2707
     22 C         137.2417  142.0393  163.2821 C.3     1  UNL1        0.2898
     23 O         137.4900  140.5834  163.5441 O.3     1  UNL1       -0.4628
     24 H         139.7648  142.5540  160.9329 H       1  UNL1        0.1565
     25 C         144.7492  143.1380  165.1319 C.3     1  UNL1        0.0327
     26 C         141.1823  141.0791  166.9451 C.ar    1  UNL1        0.2249
     27 C         139.7960  141.5259  166.5867 C.ar    1  UNL1        0.0593
     28 C         139.5987  142.6590  165.6238 C.ar    1  UNL1        0.0254
     29 C         140.7876  143.3453  165.0194 C.ar    1  UNL1        0.0990
     30 N         140.5903  144.4784  164.0565 N.ar    1  UNL1       -0.2400
     31 C         141.7792  145.1647  163.4521 C.ar    1  UNL1        0.1281
     32 C         143.1656  144.7179  163.8105 C.ar    1  UNL1        0.1566
     33 F         144.3545  145.4042  163.2061 F       1  UNL1       -0.2028
     34 C         143.3629  143.5848  164.7734 C.ar    1  UNL1        0.0261
     35 C         142.1739  142.8985  165.3779 C.ar    1  UNL1        0.1002
     36 N         142.3712  141.7654  166.3407 N.ar    1  UNL1       -0.2104
     37 O         141.3796  139.9460  167.9080 O.3     1  UNL1       -0.4600
     38 C         142.7047  139.7598  168.5858 C.3     1  UNL1        0.2133
     39 C         142.9194  140.2915  169.9719 C.3     1  UNL1        0.1232
     40 C         142.7177  141.7506  170.2551 C.3     1  UNL1        0.3336
     41 F         144.0610  142.0519  169.6596 F       1  UNL1       -0.1945
     42 F         141.3744  141.4494  170.8507 F       1  UNL1       -0.1945
     43 N         143.6063  144.0042  171.1942 N.am    1  UNL1       -0.3244
     44 C         142.5160  143.2098  170.5383 C.2     1  UNL1        0.2808
     45 O         141.2240  143.8745  170.1657 O.2     1  UNL1       -0.2695
     46 H         143.4739  144.9619  171.3801 H       1  UNL1        0.1451
     47 H         144.4543  143.5680  171.4387 H       1  UNL1        0.1451
@<TRIPOS>BOND
     1    43    44   am
     2    44    45    2
     3    44    40    1
     4    40    41    1
     5    40    42    1
     6    40    39    1
     7    39    38    1
     8    38    37    1
     9    37    26    1
    10    26    27   ar
    11    27    28   ar
    12    28    29   ar
    13    29    30   ar
    14    30    31   ar
    15    31    32   ar
    16    32    33    1
    17    32    34   ar
    18    34    25    1
    19    25     1    1
    20     1     2    1
    21     2     3    1
    22     3     4    1
    23     4     5    1
    24     5    10    1
    25    10    12    1
    26    12    13    1
    27    13    14   ar
    28    14    15   ar
    29    15    16   ar
    30    16    17   ar
    31    17    18   ar
    32    17    19    1
    33    19    20   am
    34    20    21    2
    35    20    22    1
    36    22    23    1
    37     5     6    1
    38     6     7    1
    39     5     8    1
    40     8     9    1
    41    34    35   ar
    42    35    36   ar
    43    36    26   ar
    44    35    29   ar
    45     7     2    1
    46     9     2    1
    47    18    13   ar
    48    23    16    1
    49    43    46    1
    50    43    47    1
    51    10    11    1
    52    19    24    1
@<TRIPOS>MOLECULE
*****
 47 52 0 0 0
SMALL
GASTEIGER

@<TRIPOS>ATOM
      1 C         138.5799  138.5097  165.1476 C.3     1  UNL1        0.0320
      2 C         138.5139  139.9868  164.8951 C.3     1  UNL1        0.0932
      3 C         137.6297  140.5231  163.8085 C.3     1  UNL1        0.0286
      4 C         137.5637  142.0002  163.5559 C.3     1  UNL1        0.0193
      5 C         138.3819  142.9410  164.3900 C.3     1  UNL1        0.0700
      6 C         139.2660  142.4047  165.4765 C.3     1  UNL1        0.0193
      7 C         139.3320  140.9275  165.7291 C.3     1  UNL1        0.0286
      8 C         138.4511  142.1396  164.5656 C.3     1  UNL1        0.1562
      9 O         138.5108  140.8039  164.7940 O.3     1  UNL1       -0.3572
     10 N         138.3159  144.4181  164.1374 N.3     1  UNL1       -0.2926
     11 H         138.6823  144.8761  164.9718 H       1  UNL1        0.1236
     12 C         139.0389  145.0115  162.9648 C.3     1  UNL1        0.1152
     13 C         140.4565  144.6138  162.6783 C.ar    1  UNL1        0.0765
     14 C         141.5792  145.2160  163.4703 C.ar    1  UNL1        0.0193
     15 C         142.9968  144.8183  163.1838 C.ar    1  UNL1        0.0411
     16 C         143.2919  143.8184  162.1052 C.ar    1  UNL1        0.1708
     17 C         142.1693  143.2163  161.3132 C.ar    1  UNL1        0.1682
     18 N         140.7516  143.6140  161.5997 N.ar    1  UNL1       -0.2304
     19 N         142.4644  142.2165  160.2347 N.am    1  UNL1       -0.2639
     20 C         143.8820  141.8188  159.9481 C.2     1  UNL1        0.2718
     21 O         144.1771  140.8189  158.8696 O.2     1  UNL1       -0.2707
     22 C         145.0047  142.4209  160.7402 C.3     1  UNL1        0.2898
     23 O         144.7096  143.4207  161.8187 O.3     1  UNL1       -0.4628
     24 H         141.7276  141.8213  159.7148 H       1  UNL1        0.1565
     25 C         139.1883  137.5998  164.1219 C.3     1  UNL1        0.0327
     26 C         143.1653  138.7672  165.8744 C.ar    1  UNL1        0.2249
     27 C         144.2600  139.2702  164.9808 C.ar    1  UNL1        0.0593
     28 C         144.0291  139.3840  163.5030 C.ar    1  UNL1        0.0254
     29 C         142.7035  138.9949  162.9189 C.ar    1  UNL1        0.0990
     30 N         142.4726  139.1087  161.4411 N.ar    1  UNL1       -0.2400
     31 C         141.1470  138.7196  160.8570 C.ar    1  UNL1        0.1281
     32 C         140.0522  138.2166  161.7506 C.ar    1  UNL1        0.1566
     33 F         138.7266  137.8275  161.1664 F       1  UNL1       -0.2028
     34 C         140.2831  138.1028  163.2283 C.ar    1  UNL1        0.0261
     35 C         141.6088  138.4919  163.8124 C.ar    1  UNL1        0.1002
     36 N         141.8396  138.3781  165.2902 N.ar    1  UNL1       -0.2104
     37 O         143.3961  138.6534  167.3521 O.3     1  UNL1       -0.4600
     38 C         142.7028  139.5925  168.2941 C.3     1  UNL1        0.2133
     39 C         142.6329  141.0569  167.9769 C.3     1  UNL1        0.1232
     40 C         142.4145  142.0530  169.0770 C.3     1  UNL1        0.3336
     41 F         141.0447  142.3453  168.5404 F       1  UNL1       -0.1945
     42 F         143.7844  141.7607  169.6136 F       1  UNL1       -0.1945
     43 N         143.3681  143.5970  170.9362 N.am    1  UNL1       -0.3244
     44 C         142.1962  143.0490  170.1771 C.2     1  UNL1        0.2808
     45 O         140.8058  143.4971  170.5180 O.2     1  UNL1       -0.2695
     46 H         143.2248  144.2508  171.6583 H       1  UNL1        0.1451
     47 H         144.2806  143.3029  170.7125 H       1  UNL1        0.1451
@<TRIPOS>BOND
     1    43    44   am
     2    44    45    2
     3    44    40    1
     4    40    41    1
     5    40    42    1
     6    40    39    1
     7    39    38    1
     8    38    37    1
     9    37    26    1
    10    26    27   ar
    11    27    28   ar
    12    28    29   ar
    13    29    30   ar
    14    30    31   ar
    15    31    32   ar
    16    32    33    1
    17    32    34   ar
    18    34    25    1
    19    25     1    1
    20     1     2    1
    21     2     3    1
    22     3     4    1
    23     4     5    1
    24     5    10    1
    25    10    12    1
    26    12    13    1
    27    13    14   ar
    28    14    15   ar
    29    15    16   ar
    30    16    17   ar
    31    17    18   ar
    32    17    19    1
    33    19    20   am
    34    20    21    2
    35    20    22    1
    36    22    23    1
    37     5     6    1
    38     6     7    1
    39     5     8    1
    40     8     9    1
    41    34    35   ar
    42    35    36   ar
    43    36    26   ar
    44    35    29   ar
    45     7     2    1
    46     9     2    1
    47    18    13   ar
    48    23    16    1
    49    43    46    1
    50    43    47    1
    51    10    11    1
    52    19    24    1
@<TRIPOS>MOLECULE
*****
 47 52 0 0 0
SMALL
GASTEIGER

@<TRIPOS>ATOM
      1 C         143.0312  138.1186  165.6053 C.3     1  UNL1        0.0320
      2 C         141.9631  138.0697  164.5533 C.3     1  UNL1        0.0932
      3 C         140.5428  137.7808  164.9394 C.3     1  UNL1        0.0286
      4 C         139.4747  137.7318  163.8874 C.3     1  UNL1        0.0193
      5 C         139.8270  137.9717  162.4492 C.3     1  UNL1        0.0700
      6 C         141.2473  138.2605  162.0631 C.3     1  UNL1        0.0193
      7 C         142.3154  138.3095  163.1152 C.3     1  UNL1        0.0286
      8 C         140.4466  138.0088  162.9902 C.3     1  UNL1        0.1562
      9 O         141.4124  138.0531  163.9414 O.3     1  UNL1       -0.3572
     10 N         138.7589  137.9227  161.3972 N.3     1  UNL1       -0.2926
     11 H         138.3499  136.9891  161.4361 H       1  UNL1        0.1236
     12 C         137.6191  138.8969  161.4396 C.3     1  UNL1        0.1152
     13 C         137.8895  140.3597  161.6316 C.ar    1  UNL1        0.0765
     14 C         137.3279  141.0761  162.8239 C.ar    1  UNL1        0.0193
     15 C         137.5983  142.5390  163.0159 C.ar    1  UNL1        0.0411
     16 C         138.4304  143.2855  162.0158 C.ar    1  UNL1        0.1708
     17 C         138.9921  142.5691  160.8236 C.ar    1  UNL1        0.1682
     18 N         138.7217  141.1062  160.6315 N.ar    1  UNL1       -0.2304
     19 N         139.8242  143.3156  159.8234 N.am    1  UNL1       -0.2639
     20 C         140.0946  144.7785  160.0155 C.2     1  UNL1        0.2718
     21 O         140.9268  145.5250  159.0153 O.2     1  UNL1       -0.2707
     22 C         139.5330  145.4949  161.2077 C.3     1  UNL1        0.2898
     23 O         138.7008  144.7484  162.2078 O.3     1  UNL1       -0.4628
     24 H         140.1929  142.8455  159.0409 H       1  UNL1        0.1565
     25 C         143.3842  139.4235  166.2556 C.3     1  UNL1        0.0327
     26 C         141.3031  142.9944  164.4757 C.ar    1  UNL1        0.2249
     27 C         140.2733  143.7373  165.2742 C.ar    1  UNL1        0.0593
     28 C         139.9372  143.2899  166.6659 C.ar    1  UNL1        0.0254
     29 C         140.6308  142.0996  167.2592 C.ar    1  UNL1        0.0990
     30 N         140.2947  141.6523  168.6509 N.ar    1  UNL1       -0.2400
     31 C         140.9884  140.4620  169.2442 C.ar    1  UNL1        0.1281
     32 C         142.0183  139.7190  168.4457 C.ar    1  UNL1        0.1566
     33 F         142.7119  138.5288  169.0390 F       1  UNL1       -0.2028
     34 C         142.3544  140.1664  167.0540 C.ar    1  UNL1        0.0261
     35 C         141.6607  141.3568  166.4607 C.ar    1  UNL1        0.1002
     36 N         141.9968  141.8041  165.0690 N.ar    1  UNL1       -0.2104
     37 O         141.6392  143.4418  163.0840 O.3     1  UNL1       -0.4600
     38 C         142.4857  144.6618  162.8723 C.3     1  UNL1        0.2133
     39 C         143.9804  144.5601  162.9479 C.3     1  UNL1        0.1232
     40 C         144.6432  143.2148  162.9137 C.3     1  UNL1        0.3336
     41 F         144.5170  143.1908  161.4193 F       1  UNL1       -0.1945
     42 F         144.7693  143.2389  164.4082 F       1  UNL1       -0.1945
     43 N         146.3080  141.5002  163.9328 N.am    1  UNL1       -0.3244
     44 C         145.3060  141.8697  162.8794 C.2     1  UNL1        0.2808
     45 O         144.9667  140.8939  161.7918 O.2     1  UNL1       -0.2695
     46 H         146.7430  140.6173  163.9103 H       1  UNL1        0.1451
     47 H         146.5307  142.1406  164.6466 H       1  UNL1        0.1451
@<TRIPOS>BOND
     1    43    44   am
     2    44    45    2
     3    44    40    1
     4    40    41    1
     5    40    42    1
     6    40    39    1
     7    39    38    1
     8    38    37    1
     9    37    26    1
    10    26    27   ar
    11    27    28   ar
    12    28    29   ar
    13    29    30   ar
    14    30    31   ar
    15    31    32   ar
    16    32    33    1
    17    32    34   ar
    18    34    25    1
    19    25     1    1
    20     1     2    1
    21     2     3    1
    22     3     4    1
    23     4     5    1
    24     5    10    1
    25    10    12    1
    26    12    13    1
    27    13    14   ar
    28    14    15   ar
    29    15    16   ar
    30    16    17   ar
    31    17    18   ar
    32    17    19    1
    33    19    20   am
    34    20    21    2
    35    20    22    1
    36    22    23    1
    37     5     6    1
    38     6     7    1
    39     5     8    1
    40     8     9    1
    41    34    35   ar
    42    35    36   ar
    43    36    26   ar
    44    35    29   ar
    45     7     2    1
    46     9     2    1
    47    18    13   ar
    48    23    16    1
    49    43    46    1
    50    43    47    1
    51    10    11    1
    52    19    24    1
@<TRIPOS>MOLECULE
*****
 47 52 0 0 0
SMALL
GASTEIGER

@<TRIPOS>ATOM
      1 C         144.5770  140.9829  163.4711 C.3     1  UNL1        0.0320
      2 C         143.7466  142.2262  163.3497 C.3     1  UNL1        0.0932
      3 C         143.6491  142.9373  162.0325 C.3     1  UNL1        0.0286
      4 C         142.8188  144.1805  161.9111 C.3     1  UNL1        0.0193
      5 C         142.0859  144.7128  163.1069 C.3     1  UNL1        0.0700
      6 C         142.1835  144.0017  164.4240 C.3     1  UNL1        0.0193
      7 C         143.0139  142.7584  164.5454 C.3     1  UNL1        0.0286
      8 C         142.5285  144.0281  163.2222 C.3     1  UNL1        0.1562
      9 O         143.2793  142.9039  163.3320 O.3     1  UNL1       -0.3572
     10 N         141.2556  145.9560  162.9854 N.3     1  UNL1       -0.2926
     11 H         141.8054  146.6260  162.4476 H       1  UNL1        0.1236
     12 C         139.9010  145.8936  162.3442 C.3     1  UNL1        0.1152
     13 C         139.2164  144.5711  162.1646 C.ar    1  UNL1        0.0765
     14 C         138.3695  144.0090  163.2677 C.ar    1  UNL1        0.0193
     15 C         137.6850  142.6865  163.0882 C.ar    1  UNL1        0.0411
     16 C         137.8473  141.9260  161.8055 C.ar    1  UNL1        0.1708
     17 C         138.6941  142.4880  160.7023 C.ar    1  UNL1        0.1682
     18 N         139.3787  143.8106  160.8819 N.ar    1  UNL1       -0.2304
     19 N         138.8564  141.7275  159.4196 N.am    1  UNL1       -0.2639
     20 C         138.1718  140.4050  159.2401 C.2     1  UNL1        0.2718
     21 O         138.3341  139.6445  157.9574 O.2     1  UNL1       -0.2707
     22 C         137.3249  139.8429  160.3432 C.3     1  UNL1        0.2898
     23 O         137.1627  140.6034  161.6259 O.3     1  UNL1       -0.4628
     24 H         139.4122  142.0964  158.6956 H       1  UNL1        0.1565
     25 C         143.9606  139.7168  163.9880 C.3     1  UNL1        0.0327
     26 C         139.7728  139.9747  165.6147 C.ar    1  UNL1        0.2249
     27 C         138.6385  139.3346  164.8707 C.ar    1  UNL1        0.0593
     28 C         138.9001  138.6085  163.5845 C.ar    1  UNL1        0.0254
     29 C         140.2960  138.5225  163.0423 C.ar    1  UNL1        0.0990
     30 N         140.5576  137.7964  161.7561 N.ar    1  UNL1       -0.2400
     31 C         141.9535  137.7104  161.2138 C.ar    1  UNL1        0.1281
     32 C         143.0879  138.3506  161.9578 C.ar    1  UNL1        0.1566
     33 F         144.4838  138.2646  161.4156 F       1  UNL1       -0.2028
     34 C         142.8263  139.0767  163.2441 C.ar    1  UNL1        0.0261
     35 C         141.4303  139.1627  163.7863 C.ar    1  UNL1        0.1002
     36 N         141.1687  139.8888  165.0725 N.ar    1  UNL1       -0.2104
     37 O         139.5112  140.7009  166.9009 O.3     1  UNL1       -0.4600
     38 C         139.2755  139.9274  168.1642 C.3     1  UNL1        0.2133
     39 C         140.0526  140.2601  169.4034 C.3     1  UNL1        0.1232
     40 C         140.0038  141.6486  169.9690 C.3     1  UNL1        0.3336
     41 F         141.4021  141.8947  169.4852 F       1  UNL1       -0.1945
     42 F         138.6055  141.4025  170.4528 F       1  UNL1       -0.1945
     43 N         138.8315  143.4374  171.4441 N.am    1  UNL1       -0.3244
     44 C         139.9552  143.0370  170.5346 C.2     1  UNL1        0.2808
     45 O         141.0301  144.0251  170.1907 O.2     1  UNL1       -0.2695
     46 H         138.7995  144.3487  171.8153 H       1  UNL1        0.1451
     47 H         138.1259  142.7890  171.6698 H       1  UNL1        0.1451
@<TRIPOS>BOND
     1    43    44   am
     2    44    45    2
     3    44    40    1
     4    40    41    1
     5    40    42    1
     6    40    39    1
     7    39    38    1
     8    38    37    1
     9    37    26    1
    10    26    27   ar
    11    27    28   ar
    12    28    29   ar
    13    29    30   ar
    14    30    31   ar
    15    31    32   ar
    16    32    33    1
    17    32    34   ar
    18    34    25    1
    19    25     1    1
    20     1     2    1
    21     2     3    1
    22     3     4    1
    23     4     5    1
    24     5    10    1
    25    10    12    1
    26    12    13    1
    27    13    14   ar
    28    14    15   ar
    29    15    16   ar
    30    16    17   ar
    31    17    18   ar
    32    17    19    1
    33    19    20   am
    34    20    21    2
    35    20    22    1
    36    22    23    1
    37     5     6    1
    38     6     7    1
    39     5     8    1
    40     8     9    1
    41    34    35   ar
    42    35    36   ar
    43    36    26   ar
    44    35    29   ar
    45     7     2    1
    46     9     2    1
    47    18    13   ar
    48    23    16    1
    49    43    46    1
    50    43    47    1
    51    10    11    1
    52    19    24    1
@<TRIPOS>MOLECULE
*****
 47 52 0 0 0
SMALL
GASTEIGER

@<TRIPOS>ATOM
      1 C         142.4022  137.9301  161.0149 C.3     1  UNL1        0.0320
      2 C         143.2586  138.9397  161.7200 C.3     1  UNL1        0.0932
      3 C         143.6640  140.2011  161.0168 C.3     1  UNL1        0.0286
      4 C         144.5205  141.2107  161.7219 C.3     1  UNL1        0.0193
      5 C         144.9716  140.9589  163.1302 C.3     1  UNL1        0.0700
      6 C         144.5662  139.6975  163.8333 C.3     1  UNL1        0.0193
      7 C         143.7097  138.6878  163.1282 C.3     1  UNL1        0.0286
      8 C         144.5032  140.3764  162.7849 C.3     1  UNL1        0.1562
      9 O         143.7288  139.4634  162.1473 O.3     1  UNL1       -0.3572
     10 N         145.8280  141.9685  163.8353 N.3     1  UNL1       -0.2926
     11 H         146.3725  142.4459  163.1168 H       1  UNL1        0.1236
     12 C         145.1918  143.0351  164.6765 C.3     1  UNL1        0.1152
     13 C         143.7235  143.3142  164.5494 C.ar    1  UNL1        0.0765
     14 C         142.7555  142.6911  165.5111 C.ar    1  UNL1        0.0193
     15 C         141.2873  142.9702  165.3840 C.ar    1  UNL1        0.0411
     16 C         140.7869  143.8726  164.2952 C.ar    1  UNL1        0.1708
     17 C         141.7548  144.4957  163.3335 C.ar    1  UNL1        0.1682
     18 N         143.2231  144.2165  163.4606 N.ar    1  UNL1       -0.2304
     19 N         141.2544  145.3980  162.2447 N.am    1  UNL1       -0.2639
     20 C         139.7861  145.6772  162.1176 C.2     1  UNL1        0.2718
     21 O         139.2857  146.5795  161.0289 O.2     1  UNL1       -0.2707
     22 C         138.8181  145.0540  163.0793 C.3     1  UNL1        0.2898
     23 O         139.3185  144.1517  164.1681 O.3     1  UNL1       -0.4628
     24 H         141.8896  145.8070  161.6136 H       1  UNL1        0.1565
     25 C         141.0328  137.6120  161.5382 C.3     1  UNL1        0.0327
     26 C         139.4087  139.6721  165.1944 C.ar    1  UNL1        0.2249
     27 C         138.3026  140.6763  165.0603 C.ar    1  UNL1        0.0593
     28 C         137.7379  140.9938  163.7074 C.ar    1  UNL1        0.0254
     29 C         138.2792  140.3071  162.4887 C.ar    1  UNL1        0.0990
     30 N         137.7145  140.6247  161.1358 N.ar    1  UNL1       -0.2400
     31 C         138.2558  139.9380  159.9171 C.ar    1  UNL1        0.1281
     32 C         139.3620  138.9337  160.0512 C.ar    1  UNL1        0.1566
     33 F         139.9033  138.2470  158.8324 F       1  UNL1       -0.2028
     34 C         139.9267  138.6162  161.4040 C.ar    1  UNL1        0.0261
     35 C         139.3853  139.3029  162.6228 C.ar    1  UNL1        0.1002
     36 N         139.9501  138.9854  163.9757 N.ar    1  UNL1       -0.2104
     37 O         139.9735  139.3546  166.5473 O.3     1  UNL1       -0.4600
     38 C         139.5434  140.1488  167.7448 C.3     1  UNL1        0.2133
     39 C         140.4139  141.2548  168.2633 C.3     1  UNL1        0.1232
     40 C         140.8330  141.2669  169.7036 C.3     1  UNL1        0.3336
     41 F         141.0635  139.7858  169.6489 F       1  UNL1       -0.1945
     42 F         140.6025  142.7480  169.7583 F       1  UNL1       -0.1945
     43 N         142.4370  140.4730  171.5869 N.am    1  UNL1       -0.3244
     44 C         141.2520  141.2789  171.1438 C.2     1  UNL1        0.2808
     45 O         140.4860  142.0969  172.1410 O.2     1  UNL1       -0.2695
     46 H         142.7120  140.4809  172.5322 H       1  UNL1        0.1451
     47 H         142.9397  139.9362  170.9325 H       1  UNL1        0.1451
@<TRIPOS>BOND
     1    43    44   am
     2    44    45    2
     3    44    40    1
     4    40    41    1
     5    40    42    1
     6    40    39    1
     7    39    38    1
     8    38    37    1
     9    37    26    1
    10    26    27   ar
    11    27    28   ar
    12    28    29   ar
    13    29    30   ar
    14    30    31   ar
    15    31    32   ar
    16    32    33    1
    17    32    34   ar
    18    34    25    1
    19    25     1    1
    20     1     2    1
    21     2     3    1
    22     3     4    1
    23     4     5    1
    24     5    10    1
    25    10    12    1
    26    12    13    1
    27    13    14   ar
    28    14    15   ar
    29    15    16   ar
    30    16    17   ar
    31    17    18   ar
    32    17    19    1
    33    19    20   am
    34    20    21    2
    35    20    22    1
    36    22    23    1
    37     5     6    1
    38     6     7    1
    39     5     8    1
    40     8     9    1
    41    34    35   ar
    42    35    36   ar
    43    36    26   ar
    44    35    29   ar
    45     7     2    1
    46     9     2    1
    47    18    13   ar
    48    23    16    1
    49    43    46    1
    50    43    47    1
    51    10    11    1
    52    19    24    1
@<TRIPOS>MOLECULE
*****
 47 52 0 0 0
SMALL
GASTEIGER

@<TRIPOS>ATOM
      1 C         138.1091  139.7499  165.2881 C.3     1  UNL1        0.0320
      2 C         138.1151  141.0520  164.5437 C.3     1  UNL1        0.0932
      3 C         138.4960  142.3187  165.2511 C.3     1  UNL1        0.0286
      4 C         138.5020  143.6209  164.5067 C.3     1  UNL1        0.0193
      5 C         138.1271  143.6564  163.0547 C.3     1  UNL1        0.0700
      6 C         137.7462  142.3898  162.3472 C.3     1  UNL1        0.0193
      7 C         137.7402  141.0876  163.0917 C.3     1  UNL1        0.0286
      8 C         138.1091  142.9191  163.4206 C.3     1  UNL1        0.1562
      9 O         138.1037  141.7416  164.0938 O.3     1  UNL1       -0.3572
     10 N         138.1331  144.9586  162.3102 N.3     1  UNL1       -0.2926
     11 H         137.3933  145.5325  162.7148 H       1  UNL1        0.1236
     12 C         139.3724  145.8033  162.2866 C.3     1  UNL1        0.1152
     13 C         140.7197  145.1552  162.1654 C.ar    1  UNL1        0.0765
     14 C         141.7035  145.2535  163.2934 C.ar    1  UNL1        0.0193
     15 C         143.0508  144.6053  163.1722 C.ar    1  UNL1        0.0411
     16 C         143.4143  143.8588  161.9230 C.ar    1  UNL1        0.1708
     17 C         142.4305  143.7605  160.7949 C.ar    1  UNL1        0.1682
     18 N         141.0832  144.4087  160.9161 N.ar    1  UNL1       -0.2304
     19 N         142.7940  143.0140  159.5457 N.am    1  UNL1       -0.2639
     20 C         144.1412  142.3658  159.4245 C.2     1  UNL1        0.2718
     21 O         144.5047  141.6194  158.1752 O.2     1  UNL1       -0.2707
     22 C         145.1251  142.4641  160.5525 C.3     1  UNL1        0.2898
     23 O         144.7616  143.2106  161.8018 O.3     1  UNL1       -0.4628
     24 H         142.1483  142.9495  158.8053 H       1  UNL1        0.1565
     25 C         139.4041  139.0681  165.6173 C.3     1  UNL1        0.0327
     26 C         143.1762  141.5148  165.8038 C.ar    1  UNL1        0.2249
     27 C         144.2282  141.3528  164.7470 C.ar    1  UNL1        0.0593
     28 C         144.0229  140.3751  163.6281 C.ar    1  UNL1        0.0254
     29 C         142.7656  139.5596  163.5659 C.ar    1  UNL1        0.0990
     30 N         142.5603  138.5819  162.4469 N.ar    1  UNL1       -0.2400
     31 C         141.3030  137.7664  162.3847 C.ar    1  UNL1        0.1281
     32 C         140.2508  137.9284  163.4416 C.ar    1  UNL1        0.1566
     33 F         138.9935  137.1128  163.3794 F       1  UNL1       -0.2028
     34 C         140.4561  138.9060  164.5605 C.ar    1  UNL1        0.0261
     35 C         141.7135  139.7216  164.6227 C.ar    1  UNL1        0.1002
     36 N         141.9188  140.6993  165.7416 N.ar    1  UNL1       -0.2104
     37 O         143.3814  142.4925  166.9228 O.3     1  UNL1       -0.4600
     38 C         142.9382  142.1451  168.3130 C.3     1  UNL1        0.2133
     39 C         141.5624  142.5212  168.7776 C.3     1  UNL1        0.1232
     40 C         140.7195  141.5213  169.5123 C.3     1  UNL1        0.3336
     41 F         141.6842  140.4347  169.1403 F       1  UNL1       -0.1945
     42 F         139.7547  142.6080  169.8843 F       1  UNL1       -0.1945
     43 N         140.5203  139.3368  170.9046 N.am    1  UNL1       -0.3244
     44 C         139.8766  140.5215  170.2470 C.2     1  UNL1        0.2808
     45 O         138.3900  140.7062  170.3241 O.2     1  UNL1       -0.2695
     46 H         139.9670  138.6806  171.3868 H       1  UNL1        0.1451
     47 H         141.4959  139.2156  170.8540 H       1  UNL1        0.1451
@<TRIPOS>BOND
     1    43    44   am
     2    44    45    2
     3    44    40    1
     4    40    41    1
     5    40    42    1
     6    40    39    1
     7    39    38    1
     8    38    37    1
     9    37    26    1
    10    26    27   ar
    11    27    28   ar
    12    28    29   ar
    13    29    30   ar
    14    30    31   ar
    15    31    32   ar
    16    32    33    1
    17    32    34   ar
    18    34    25    1
    19    25     1    1
    20     1     2    1
    21     2     3    1
    22     3     4    1
    23     4     5    1
    24     5    10    1
    25    10    12    1
    26    12    13    1
    27    13    14   ar
    28    14    15   ar
    29    15    16   ar
    30    16    17   ar
    31    17    18   ar
    32    17    19    1
    33    19    20   am
    34    20    21    2
    35    20    22    1
    36    22    23    1
    37     5     6    1
    38     6     7    1
    39     5     8    1
    40     8     9    1
    41    34    35   ar
    42    35    36   ar
    43    36    26   ar
    44    35    29   ar
    45     7     2    1
    46     9     2    1
    47    18    13   ar
    48    23    16    1
    49    43    46    1
    50    43    47    1
    51    10    11    1
    52    19    24    1
@<TRIPOS>MOLECULE
*****
 47 52 0 0 0
SMALL
GASTEIGER

@<TRIPOS>ATOM
      1 C         145.0447  142.8500  164.3134 C.3     1  UNL1        0.0320
      2 C         143.6709  143.4417  164.2021 C.3     1  UNL1        0.0932
      3 C         142.5826  142.9907  165.1307 C.3     1  UNL1        0.0286
      4 C         141.2087  143.5825  165.0194 C.3     1  UNL1        0.0193
      5 C         140.9232  144.6252  163.9796 C.3     1  UNL1        0.0700
      6 C         142.0115  145.0762  163.0510 C.3     1  UNL1        0.0193
      7 C         143.3854  144.4844  163.1623 C.3     1  UNL1        0.0286
      8 C         141.6915  144.3300  164.0023 C.3     1  UNL1        0.1562
      9 O         142.9337  143.7949  164.1029 O.3     1  UNL1       -0.3572
     10 N         139.5493  145.2169  163.8683 N.3     1  UNL1       -0.2926
     11 H         139.6709  146.1995  163.6231 H       1  UNL1        0.1236
     12 C         138.5635  144.6459  162.8926 C.3     1  UNL1        0.1152
     13 C         138.5700  143.1761  162.5933 C.ar    1  UNL1        0.0765
     14 C         138.5689  142.7003  161.1707 C.ar    1  UNL1        0.0193
     15 C         138.5754  141.2305  160.8714 C.ar    1  UNL1        0.0411
     16 C         138.5829  140.2364  161.9947 C.ar    1  UNL1        0.1708
     17 C         138.5840  140.7121  163.4172 C.ar    1  UNL1        0.1682
     18 N         138.5775  142.1820  163.7166 N.ar    1  UNL1       -0.2304
     19 N         138.5915  139.7180  164.5405 N.am    1  UNL1       -0.2639
     20 C         138.5980  138.2482  164.2412 C.2     1  UNL1        0.2718
     21 O         138.6055  137.2541  165.3644 O.2     1  UNL1       -0.2707
     22 C         138.5969  137.7725  162.8186 C.3     1  UNL1        0.2898
     23 O         138.5894  138.7666  161.6953 O.3     1  UNL1       -0.4628
     24 H         138.5922  140.0302  165.4742 H       1  UNL1        0.1565
     25 C         145.4823  141.7842  163.3528 C.3     1  UNL1        0.0327
     26 C         143.2849  138.6763  165.7532 C.ar    1  UNL1        0.2249
     27 C         142.2645  137.7996  165.0899 C.ar    1  UNL1        0.0593
     28 C         141.9766  137.9587  163.6264 C.ar    1  UNL1        0.0254
     29 C         142.7091  138.9947  162.8263 C.ar    1  UNL1        0.0990
     30 N         142.4211  139.1538  161.3628 N.ar    1  UNL1       -0.2400
     31 C         143.1536  140.1898  160.5626 C.ar    1  UNL1        0.1281
     32 C         144.1740  141.0666  161.2260 C.ar    1  UNL1        0.1566
     33 F         144.9065  142.1026  160.4258 F       1  UNL1       -0.2028
     34 C         144.4620  140.9074  162.6894 C.ar    1  UNL1        0.0261
     35 C         143.7294  139.8714  163.4896 C.ar    1  UNL1        0.1002
     36 N         144.0174  139.7123  164.9531 N.ar    1  UNL1       -0.2104
     37 O         143.5729  138.5172  167.2167 O.3     1  UNL1       -0.4600
     38 C         142.7392  139.2457  168.2287 C.3     1  UNL1        0.2133
     39 C         142.4697  140.7119  168.0628 C.3     1  UNL1        0.1232
     40 C         142.9533  141.6851  169.0969 C.3     1  UNL1        0.3336
     41 F         142.1816  140.9482  170.1511 F       1  UNL1       -0.1945
     42 F         143.7250  142.4219  168.0427 F       1  UNL1       -0.1945
     43 N         144.9015  142.9593  170.2506 N.am    1  UNL1       -0.3244
     44 C         143.4368  142.6581  170.1310 C.2     1  UNL1        0.2808
     45 O         142.4558  143.3299  171.0454 O.2     1  UNL1       -0.2695
     46 H         145.2188  143.5980  170.9293 H       1  UNL1        0.1451
     47 H         145.5453  142.5184  169.6504 H       1  UNL1        0.1451
@<TRIPOS>BOND
     1    43    44   am
     2    44    45    2
     3    44    40    1
     4    40    41    1
     5    40    42    1
     6    40    39    1
     7    39    38    1
     8    38    37    1
     9    37    26    1
    10    26    27   ar
    11    27    28   ar
    12    28    29   ar
    13    29    30   ar
    14    30    31   ar
    15    31    32   ar
    16    32    33    1
    17    32    34   ar
    18    34    25    1
    19    25     1    1
    20     1     2    1
    21     2     3    1
    22     3     4    1
    23     4     5    1
    24     5    10    1
    25    10    12    1
    26    12    13    1
    27    13    14   ar
    28    14    15   ar
    29    15    16   ar
    30    16    17   ar
    31    17    18   ar
    32    17    19    1
    33    19    20   am
    34    20    21    2
    35    20    22    1
    36    22    23    1
    37     5     6    1
    38     6     7    1
    39     5     8    1
    40     8     9    1
    41    34    35   ar
    42    35    36   ar
    43    36    26   ar
    44    35    29   ar
    45     7     2    1
    46     9     2    1
    47    18    13   ar
    48    23    16    1
    49    43    46    1
    50    43    47    1
    51    10    11    1
    52    19    24    1
