@<TRIPOS>MOLECULE
*****
 31 34 0 0 0
SMALL
GASTEIGER

@<TRIPOS>ATOM
      1 C         140.6606  140.0043  168.0865 C.ar    1  UNL1        0.1068
      2 C         142.0956  139.7031  168.4029 C.ar    1  UNL1        0.0867
      3 C         143.0433  139.3279  167.3025 C.ar    1  UNL1        0.0374
      4 C         142.5561  139.2539  165.8857 C.ar    1  UNL1        0.1143
      5 N         141.1212  139.5551  165.5693 N.ar    1  UNL1       -0.2782
      6 C         140.1734  139.9303  166.6698 C.ar    1  UNL1        0.1582
      7 N         138.8251  140.1710  166.0581 N.ar    1  UNL1       -0.2257
      8 C         138.9395  139.9445  164.5798 C.ar    1  UNL1        0.0999
      9 C         137.9349  140.0357  163.4697 C.ar    1  UNL1        0.0329
     10 C         138.3494  139.7463  162.0574 C.ar    1  UNL1        0.0698
     11 CL        137.3448  139.8375  160.9472 Cl      1  UNL1       -0.0813
     12 C         139.7685  139.3656  161.7553 C.ar    1  UNL1        0.0697
     13 CL        140.1830  139.0762  160.3430 Cl      1  UNL1       -0.0813
     14 C         140.7731  139.2744  162.8655 C.ar    1  UNL1        0.0314
     15 C         140.3586  139.5638  164.2777 C.ar    1  UNL1        0.0850
     16 C         142.5828  139.7772  169.8196 C.3     1  UNL1        0.4194
     17 F         143.0700  139.8512  171.2364 F       1  UNL1       -0.1658
     18 F         142.2724  138.3210  170.0024 F       1  UNL1       -0.1658
     19 F         142.8931  141.2333  169.6368 F       1  UNL1       -0.1658
     20 N         138.7650  140.7549  170.2873 N.1     1  UNL1       -0.1907
     21 C         139.7128  140.3795  169.1869 C.1     1  UNL1        0.1034
     22 N         143.5040  138.8786  164.7853 N.pl3   1  UNL1       -0.3154
     23 H         143.3202  138.0905  164.2246 H       1  UNL1        0.1485
     24 C         144.7320  139.7042  164.5391 C.3     1  UNL1        0.1176
     25 C         144.6248  141.0064  163.8025 C.ar    1  UNL1        0.0249
     26 C         144.8880  141.0571  162.3266 C.ar    1  UNL1       -0.0004
     27 C         144.7808  142.3593  161.5899 C.ar    1  UNL1       -0.0001
     28 C         144.4106  143.6110  162.3291 C.ar    1  UNL1        0.0023
     29 C         144.1474  143.5603  163.8050 C.ar    1  UNL1        0.0294
     30 C         144.2546  142.2580  164.5417 C.ar    1  UNL1        0.1377
     31 F         143.9915  142.2073  166.0175 F       1  UNL1       -0.2044
@<TRIPOS>BOND
     1    20    21    3
     2    21     1    1
     3     1     2   ar
     4     2    16    1
     5    16    17    1
     6    16    18    1
     7    16    19    1
     8     2     3   ar
     9     3     4   ar
    10     4    22    1
    11    22    24    1
    12    24    25    1
    13    25    26   ar
    14    26    27   ar
    15    27    28   ar
    16    28    29   ar
    17    29    30   ar
    18    30    31    1
    19     4     5   ar
    20     5     6   ar
    21     6     7   ar
    22     7     8   ar
    23     8     9   ar
    24     9    10   ar
    25    10    11    1
    26    10    12   ar
    27    12    13    1
    28    12    14   ar
    29    14    15   ar
    30     6     1   ar
    31    15     8   ar
    32    30    25   ar
    33    15     5   ar
    34    22    23    1
@<TRIPOS>MOLECULE
*****
 31 34 0 0 0
SMALL
GASTEIGER

@<TRIPOS>ATOM
      1 C         140.2425  141.7278  168.1092 C.ar    1  UNL1        0.1068
      2 C         139.6508  140.4278  168.5674 C.ar    1  UNL1        0.0867
      3 C         138.9933  139.5127  167.5773 C.ar    1  UNL1        0.0374
      4 C         138.9276  139.8975  166.1290 C.ar    1  UNL1        0.1143
      5 N         139.5192  141.1975  165.6708 N.ar    1  UNL1       -0.2782
      6 C         140.1767  142.1126  166.6608 C.ar    1  UNL1        0.1582
      7 N         140.6686  143.3205  165.9199 N.ar    1  UNL1       -0.2257
      8 C         140.3151  143.1519  164.4719 C.ar    1  UNL1        0.0999
      9 C         140.5484  144.0236  163.2737 C.ar    1  UNL1        0.0329
     10 C         140.0712  143.5832  161.9216 C.ar    1  UNL1        0.0698
     11 CL        140.3045  144.4549  160.7233 Cl      1  UNL1       -0.0813
     12 C         139.3609  142.2711  161.7676 C.ar    1  UNL1        0.0697
     13 CL        138.8838  141.8307  160.4154 Cl      1  UNL1       -0.0813
     14 C         139.1277  141.3994  162.9658 C.ar    1  UNL1        0.0314
     15 C         139.6048  141.8398  164.3179 C.ar    1  UNL1        0.0850
     16 C         139.7166  140.0430  170.0157 C.3     1  UNL1        0.4194
     17 F         139.7824  139.6582  171.4640 F       1  UNL1       -0.1658
     18 F         141.0576  139.4111  169.7869 F       1  UNL1       -0.1658
     19 F         138.3755  140.6749  170.2445 F       1  UNL1       -0.1658
     20 N         141.5573  143.5580  170.0894 N.1     1  UNL1       -0.1907
     21 C         140.8999  142.6429  169.0992 C.1     1  UNL1        0.1034
     22 N         138.2701  138.9823  165.1389 N.pl3   1  UNL1       -0.3154
     23 H         137.3625  139.1803  164.8127 H       1  UNL1        0.1485
     24 C         138.9954  137.7654  164.6459 C.3     1  UNL1        0.1176
     25 C         139.9752  137.8828  163.5162 C.ar    1  UNL1        0.0249
     26 C         141.4485  137.8805  163.7979 C.ar    1  UNL1       -0.0004
     27 C         142.4284  137.9979  162.6682 C.ar    1  UNL1       -0.0001
     28 C         141.9349  138.1176  161.2567 C.ar    1  UNL1        0.0023
     29 C         140.4615  138.1199  160.9750 C.ar    1  UNL1        0.0294
     30 C         139.4817  138.0025  162.1048 C.ar    1  UNL1        0.1377
     31 F         138.0084  138.0048  161.8230 F       1  UNL1       -0.2044
@<TRIPOS>BOND
     1    20    21    3
     2    21     1    1
     3     1     2   ar
     4     2    16    1
     5    16    17    1
     6    16    18    1
     7    16    19    1
     8     2     3   ar
     9     3     4   ar
    10     4    22    1
    11    22    24    1
    12    24    25    1
    13    25    26   ar
    14    26    27   ar
    15    27    28   ar
    16    28    29   ar
    17    29    30   ar
    18    30    31    1
    19     4     5   ar
    20     5     6   ar
    21     6     7   ar
    22     7     8   ar
    23     8     9   ar
    24     9    10   ar
    25    10    11    1
    26    10    12   ar
    27    12    13    1
    28    12    14   ar
    29    14    15   ar
    30     6     1   ar
    31    15     8   ar
    32    30    25   ar
    33    15     5   ar
    34    22    23    1
@<TRIPOS>MOLECULE
*****
 31 34 0 0 0
SMALL
GASTEIGER

@<TRIPOS>ATOM
      1 C         141.0296  140.9279  168.4235 C.ar    1  UNL1        0.1068
      2 C         142.0979  141.9786  168.4918 C.ar    1  UNL1        0.0867
      3 C         142.6911  142.5282  167.2285 C.ar    1  UNL1        0.0374
      4 C         142.2160  142.0271  165.8969 C.ar    1  UNL1        0.1143
      5 N         141.1477  140.9764  165.8286 N.ar    1  UNL1       -0.2782
      6 C         140.5545  140.4268  167.0919 C.ar    1  UNL1        0.1582
      7 N         139.5237  139.4049  166.7136 N.ar    1  UNL1       -0.2257
      8 C         139.4799  139.3228  165.2165 C.ar    1  UNL1        0.0999
      9 C         138.6557  138.4892  164.2807 C.ar    1  UNL1        0.0329
     10 C         138.8352  138.6269  162.7978 C.ar    1  UNL1        0.0698
     11 CL        138.0110  137.7933  161.8619 Cl      1  UNL1       -0.0813
     12 C         139.8390  139.5982  162.2509 C.ar    1  UNL1        0.0697
     13 CL        140.0185  139.7358  160.7680 Cl      1  UNL1       -0.0813
     14 C         140.6631  140.4318  163.1867 C.ar    1  UNL1        0.0314
     15 C         140.4836  140.2941  164.6695 C.ar    1  UNL1        0.0850
     16 C         142.5730  142.4798  169.8234 C.3     1  UNL1        0.4194
     17 F         143.0481  142.9809  171.1551 F       1  UNL1       -0.1658
     18 F         143.6141  141.4004  169.8582 F       1  UNL1       -0.1658
     19 F         141.5319  143.5591  169.7887 F       1  UNL1       -0.1658
     20 N         139.8431  139.8286  170.9502 N.1     1  UNL1       -0.1907
     21 C         140.4363  140.3783  169.6869 C.1     1  UNL1        0.1034
     22 N         142.8093  142.5767  164.6335 N.pl3   1  UNL1       -0.3154
     23 H         143.5617  142.1124  164.2003 H       1  UNL1        0.1485
     24 C         142.2563  143.8338  164.0302 C.3     1  UNL1        0.1176
     25 C         140.7781  143.9773  163.8198 C.ar    1  UNL1        0.0249
     26 C         139.8940  144.3839  164.9614 C.ar    1  UNL1       -0.0004
     27 C         138.4158  144.5274  164.7510 C.ar    1  UNL1       -0.0001
     28 C         137.8216  144.2644  163.3990 C.ar    1  UNL1        0.0023
     29 C         138.7057  143.8578  162.2574 C.ar    1  UNL1        0.0294
     30 C         140.1840  143.7143  162.4679 C.ar    1  UNL1        0.1377
     31 F         141.0681  143.3077  161.3263 F       1  UNL1       -0.2044
@<TRIPOS>BOND
     1    20    21    3
     2    21     1    1
     3     1     2   ar
     4     2    16    1
     5    16    17    1
     6    16    18    1
     7    16    19    1
     8     2     3   ar
     9     3     4   ar
    10     4    22    1
    11    22    24    1
    12    24    25    1
    13    25    26   ar
    14    26    27   ar
    15    27    28   ar
    16    28    29   ar
    17    29    30   ar
    18    30    31    1
    19     4     5   ar
    20     5     6   ar
    21     6     7   ar
    22     7     8   ar
    23     8     9   ar
    24     9    10   ar
    25    10    11    1
    26    10    12   ar
    27    12    13    1
    28    12    14   ar
    29    14    15   ar
    30     6     1   ar
    31    15     8   ar
    32    30    25   ar
    33    15     5   ar
    34    22    23    1
@<TRIPOS>MOLECULE
*****
 31 34 0 0 0
SMALL
GASTEIGER

@<TRIPOS>ATOM
      1 C         143.6473  143.0160  162.9799 C.ar    1  UNL1        0.1068
      2 C         143.0810  143.7006  164.1885 C.ar    1  UNL1        0.0867
      3 C         142.0221  144.7508  164.0283 C.ar    1  UNL1        0.0374
      4 C         141.5293  145.1164  162.6595 C.ar    1  UNL1        0.1143
      5 N         142.0955  144.4318  161.4509 N.ar    1  UNL1       -0.2782
      6 C         143.1545  143.3816  161.6111 C.ar    1  UNL1        0.1582
      7 N         143.5220  142.8820  160.2454 N.ar    1  UNL1       -0.2257
      8 C         142.6902  143.6233  159.2412 C.ar    1  UNL1        0.0999
      9 C         142.6217  143.5499  157.7446 C.ar    1  UNL1        0.0329
     10 C         141.6716  144.4344  156.9930 C.ar    1  UNL1        0.0698
     11 CL        141.6030  144.3611  155.4963 Cl      1  UNL1       -0.0813
     12 C         140.7899  145.3923  157.7381 C.ar    1  UNL1        0.0697
     13 CL        139.8397  146.2768  156.9865 Cl      1  UNL1       -0.0813
     14 C         140.8584  145.4657  159.2347 C.ar    1  UNL1        0.0314
     15 C         141.8086  144.5812  159.9862 C.ar    1  UNL1        0.0850
     16 C         143.5738  143.3350  165.5573 C.3     1  UNL1        0.4194
     17 F         144.0666  142.9694  166.9261 F       1  UNL1       -0.1658
     18 F         142.4812  142.3143  165.6780 F       1  UNL1       -0.1658
     19 F         144.6664  144.3556  165.4366 F       1  UNL1       -0.1658
     20 N         145.7651  140.9155  163.3003 N.1     1  UNL1       -0.1907
     21 C         144.7062  141.9658  163.1401 C.1     1  UNL1        0.1034
     22 N         140.4703  146.1666  162.4994 N.pl3   1  UNL1       -0.3154
     23 H         140.7195  147.1190  162.4858 H       1  UNL1        0.1485
     24 C         139.0315  145.7658  162.3600 C.3     1  UNL1        0.1176
     25 C         138.5934  144.3904  162.7680 C.ar    1  UNL1        0.0249
     26 C         138.4514  143.3114  161.7356 C.ar    1  UNL1       -0.0004
     27 C         138.0133  141.9361  162.1436 C.ar    1  UNL1       -0.0001
     28 C         137.7171  141.6397  163.5839 C.ar    1  UNL1        0.0023
     29 C         137.8590  142.7186  164.6163 C.ar    1  UNL1        0.0294
     30 C         138.2972  144.0940  164.2082 C.ar    1  UNL1        0.1377
     31 F         138.4391  145.1730  165.2406 F       1  UNL1       -0.2044
@<TRIPOS>BOND
     1    20    21    3
     2    21     1    1
     3     1     2   ar
     4     2    16    1
     5    16    17    1
     6    16    18    1
     7    16    19    1
     8     2     3   ar
     9     3     4   ar
    10     4    22    1
    11    22    24    1
    12    24    25    1
    13    25    26   ar
    14    26    27   ar
    15    27    28   ar
    16    28    29   ar
    17    29    30   ar
    18    30    31    1
    19     4     5   ar
    20     5     6   ar
    21     6     7   ar
    22     7     8   ar
    23     8     9   ar
    24     9    10   ar
    25    10    11    1
    26    10    12   ar
    27    12    13    1
    28    12    14   ar
    29    14    15   ar
    30     6     1   ar
    31    15     8   ar
    32    30    25   ar
    33    15     5   ar
    34    22    23    1
@<TRIPOS>MOLECULE
*****
 31 34 0 0 0
SMALL
GASTEIGER

@<TRIPOS>ATOM
      1 C         143.4349  140.3209  163.9052 C.ar    1  UNL1        0.1068
      2 C         142.8000  139.3588  162.9455 C.ar    1  UNL1        0.0867
      3 C         141.5195  138.6690  163.3121 C.ar    1  UNL1        0.0374
      4 C         140.8739  138.9413  164.6384 C.ar    1  UNL1        0.1143
      5 N         141.5088  139.9035  165.5981 N.ar    1  UNL1       -0.2782
      6 C         142.7893  140.5933  165.2315 C.ar    1  UNL1        0.1582
      7 N         143.1792  141.4843  166.3735 N.ar    1  UNL1       -0.2257
      8 C         142.1396  141.3452  167.4458 C.ar    1  UNL1        0.0999
      9 C         141.9996  141.9820  168.7967 C.ar    1  UNL1        0.0329
     10 C         140.8273  141.6417  169.6684 C.ar    1  UNL1        0.0698
     11 CL        140.6873  142.2785  171.0193 Cl      1  UNL1       -0.0813
     12 C         139.7949  140.6647  169.1891 C.ar    1  UNL1        0.0697
     13 CL        138.6226  140.3244  170.0609 Cl      1  UNL1       -0.0813
     14 C         139.9349  140.0279  167.8383 C.ar    1  UNL1        0.0314
     15 C         141.1072  140.3682  166.9666 C.ar    1  UNL1        0.0850
     16 C         143.4456  139.0864  161.6192 C.3     1  UNL1        0.4194
     17 F         144.0912  138.8140  160.2929 F       1  UNL1       -0.1658
     18 F         144.1961  137.9354  162.2209 F       1  UNL1       -0.1658
     19 F         142.6951  140.2374  161.0175 F       1  UNL1       -0.1658
     20 N         145.9961  141.7004  163.1721 N.1     1  UNL1       -0.1907
     21 C         144.7155  141.0107  163.5386 C.1     1  UNL1        0.1034
     22 N         139.5932  138.2515  165.0050 N.pl3   1  UNL1       -0.3154
     23 H         139.5968  137.2922  165.2265 H       1  UNL1        0.1485
     24 C         138.3073  139.0232  165.0339 C.3     1  UNL1        0.1176
     25 C         138.1521  140.2538  164.1903 C.ar    1  UNL1        0.0249
     26 C         138.2392  141.6117  164.8216 C.ar    1  UNL1       -0.0004
     27 C         138.0840  142.8423  163.9780 C.ar    1  UNL1       -0.0001
     28 C         137.8417  142.7150  162.5031 C.ar    1  UNL1        0.0023
     29 C         137.7546  141.3570  161.8719 C.ar    1  UNL1        0.0294
     30 C         137.9098  140.1264  162.7155 C.ar    1  UNL1        0.1377
     31 F         137.8228  138.7685  162.0843 F       1  UNL1       -0.2044
@<TRIPOS>BOND
     1    20    21    3
     2    21     1    1
     3     1     2   ar
     4     2    16    1
     5    16    17    1
     6    16    18    1
     7    16    19    1
     8     2     3   ar
     9     3     4   ar
    10     4    22    1
    11    22    24    1
    12    24    25    1
    13    25    26   ar
    14    26    27   ar
    15    27    28   ar
    16    28    29   ar
    17    29    30   ar
    18    30    31    1
    19     4     5   ar
    20     5     6   ar
    21     6     7   ar
    22     7     8   ar
    23     8     9   ar
    24     9    10   ar
    25    10    11    1
    26    10    12   ar
    27    12    13    1
    28    12    14   ar
    29    14    15   ar
    30     6     1   ar
    31    15     8   ar
    32    30    25   ar
    33    15     5   ar
    34    22    23    1
@<TRIPOS>MOLECULE
*****
 31 34 0 0 0
SMALL
GASTEIGER

@<TRIPOS>ATOM
      1 C         141.1877  142.2178  168.3510 C.ar    1  UNL1        0.1068
      2 C         141.9867  141.0545  168.8594 C.ar    1  UNL1        0.0867
      3 C         142.5918  140.0804  167.8924 C.ar    1  UNL1        0.0374
      4 C         142.3978  140.2696  166.4171 C.ar    1  UNL1        0.1143
      5 N         141.5989  141.4328  165.9087 N.ar    1  UNL1       -0.2782
      6 C         140.9938  142.4069  166.8756 C.ar    1  UNL1        0.1582
      7 N         140.2617  143.4505  166.0852 N.ar    1  UNL1       -0.2257
      8 C         140.4142  143.1214  164.6297 C.ar    1  UNL1        0.0999
      9 C         139.9074  143.7961  163.3896 C.ar    1  UNL1        0.0329
     10 C         140.2270  143.2238  162.0405 C.ar    1  UNL1        0.0698
     11 CL        139.7201  143.8985  160.8003 Cl      1  UNL1       -0.0813
     12 C         141.0534  141.9768  161.9314 C.ar    1  UNL1        0.0697
     13 CL        141.3730  141.4045  160.5821 Cl      1  UNL1       -0.0813
     14 C         141.5603  141.3021  163.1715 C.ar    1  UNL1        0.0314
     15 C         141.2407  141.8744  164.5206 C.ar    1  UNL1        0.0850
     16 C         142.1806  140.8654  170.3347 C.3     1  UNL1        0.4194
     17 F         142.3745  140.6762  171.8101 F       1  UNL1       -0.1658
     18 F         140.9129  140.0661  170.3989 F       1  UNL1       -0.1658
     19 F         143.4483  141.6647  170.2706 F       1  UNL1       -0.1658
     20 N         139.9776  144.1661  170.2848 N.1     1  UNL1       -0.1907
     21 C         140.5827  143.1919  169.3180 C.1     1  UNL1        0.1034
     22 N         143.0029  139.2954  165.4501 N.pl3   1  UNL1       -0.3154
     23 H         143.8713  139.4932  165.0306 H       1  UNL1        0.1485
     24 C         142.2849  138.0198  165.1224 C.3     1  UNL1        0.1176
     25 C         141.2621  137.9956  164.0254 C.ar    1  UNL1        0.0249
     26 C         139.8006  138.0305  164.3617 C.ar    1  UNL1       -0.0004
     27 C         138.7779  138.0063  163.2647 C.ar    1  UNL1       -0.0001
     28 C         139.2165  137.9472  161.8314 C.ar    1  UNL1        0.0023
     29 C         140.6779  137.9122  161.4952 C.ar    1  UNL1        0.0294
     30 C         141.7007  137.9365  162.5922 C.ar    1  UNL1        0.1377
     31 F         143.1621  137.9015  162.2560 F       1  UNL1       -0.2044
@<TRIPOS>BOND
     1    20    21    3
     2    21     1    1
     3     1     2   ar
     4     2    16    1
     5    16    17    1
     6    16    18    1
     7    16    19    1
     8     2     3   ar
     9     3     4   ar
    10     4    22    1
    11    22    24    1
    12    24    25    1
    13    25    26   ar
    14    26    27   ar
    15    27    28   ar
    16    28    29   ar
    17    29    30   ar
    18    30    31    1
    19     4     5   ar
    20     5     6   ar
    21     6     7   ar
    22     7     8   ar
    23     8     9   ar
    24     9    10   ar
    25    10    11    1
    26    10    12   ar
    27    12    13    1
    28    12    14   ar
    29    14    15   ar
    30     6     1   ar
    31    15     8   ar
    32    30    25   ar
    33    15     5   ar
    34    22    23    1
@<TRIPOS>MOLECULE
*****
 31 34 0 0 0
SMALL
GASTEIGER

@<TRIPOS>ATOM
      1 C         140.9513  142.0010  168.4827 C.ar    1  UNL1        0.1068
      2 C         141.7107  140.8376  169.0481 C.ar    1  UNL1        0.0867
      3 C         142.1788  139.7365  168.1434 C.ar    1  UNL1        0.0374
      4 C         141.8874  139.7989  166.6732 C.ar    1  UNL1        0.1143
      5 N         141.1281  140.9623  166.1078 N.ar    1  UNL1       -0.2782
      6 C         140.6600  142.0634  167.0126 C.ar    1  UNL1        0.1582
      7 N         139.9384  143.0767  166.1744 N.ar    1  UNL1       -0.2257
      8 C         139.9605  142.6019  164.7517 C.ar    1  UNL1        0.0999
      9 C         139.4062  143.1907  163.4884 C.ar    1  UNL1        0.0329
     10 C         139.5870  142.4726  162.1839 C.ar    1  UNL1        0.0698
     11 CL        139.0326  143.0614  160.9205 Cl      1  UNL1       -0.0813
     12 C         140.3223  141.1658  162.1428 C.ar    1  UNL1        0.0697
     13 CL        140.5031  140.4478  160.8382 Cl      1  UNL1       -0.0813
     14 C         140.8767  140.5771  163.4061 C.ar    1  UNL1        0.0314
     15 C         140.6958  141.2951  164.7105 C.ar    1  UNL1        0.0850
     16 C         142.0020  140.7752  170.5182 C.3     1  UNL1        0.4194
     17 F         142.2933  140.7129  171.9884 F       1  UNL1       -0.1658
     18 F         143.3645  141.3527  170.2727 F       1  UNL1       -0.1658
     19 F         140.6396  140.1978  170.7637 F       1  UNL1       -0.1658
     20 N         140.0151  144.2031  170.2922 N.1     1  UNL1       -0.1907
     21 C         140.4833  143.1021  169.3874 C.1     1  UNL1        0.1034
     22 N         142.3555  138.6977  165.7685 N.pl3   1  UNL1       -0.3154
     23 H         141.7368  137.9773  165.5091 H       1  UNL1        0.1485
     24 C         143.7664  138.6944  165.2591 C.3     1  UNL1        0.1176
     25 C         144.1592  139.6037  164.1327 C.ar    1  UNL1        0.0249
     26 C         144.7961  140.9296  164.4263 C.ar    1  UNL1       -0.0004
     27 C         145.1888  141.8389  163.2999 C.ar    1  UNL1       -0.0001
     28 C         144.9446  141.4223  161.8796 C.ar    1  UNL1        0.0023
     29 C         144.3077  140.0963  161.5860 C.ar    1  UNL1        0.0294
     30 C         143.9149  139.1870  162.7126 C.ar    1  UNL1        0.1377
     31 F         143.2780  137.8611  162.4189 F       1  UNL1       -0.2044
@<TRIPOS>BOND
     1    20    21    3
     2    21     1    1
     3     1     2   ar
     4     2    16    1
     5    16    17    1
     6    16    18    1
     7    16    19    1
     8     2     3   ar
     9     3     4   ar
    10     4    22    1
    11    22    24    1
    12    24    25    1
    13    25    26   ar
    14    26    27   ar
    15    27    28   ar
    16    28    29   ar
    17    29    30   ar
    18    30    31    1
    19     4     5   ar
    20     5     6   ar
    21     6     7   ar
    22     7     8   ar
    23     8     9   ar
    24     9    10   ar
    25    10    11    1
    26    10    12   ar
    27    12    13    1
    28    12    14   ar
    29    14    15   ar
    30     6     1   ar
    31    15     8   ar
    32    30    25   ar
    33    15     5   ar
    34    22    23    1
@<TRIPOS>MOLECULE
*****
 31 34 0 0 0
SMALL
GASTEIGER

@<TRIPOS>ATOM
      1 C         141.4123  138.7523  161.9161 C.ar    1  UNL1        0.1068
      2 C         142.7628  138.7539  161.2634 C.ar    1  UNL1        0.0867
      3 C         143.9825  139.1010  162.0644 C.ar    1  UNL1        0.0374
      4 C         143.8518  139.4465  163.5182 C.ar    1  UNL1        0.1143
      5 N         142.5013  139.4449  164.1710 N.ar    1  UNL1       -0.2782
      6 C         141.2815  139.0978  163.3699 C.ar    1  UNL1        0.1582
      7 N         140.0913  139.1794  164.2791 N.ar    1  UNL1       -0.2257
      8 C         140.5754  139.5770  165.6420 C.ar    1  UNL1        0.0999
      9 C         139.8524  139.8107  166.9353 C.ar    1  UNL1        0.0329
     10 C         140.6188  140.2086  168.1617 C.ar    1  UNL1        0.0698
     11 CL        139.8958  140.4424  169.4551 Cl      1  UNL1       -0.0813
     12 C         142.1083  140.3727  168.0949 C.ar    1  UNL1        0.0697
     13 CL        142.8748  140.7705  169.3214 Cl      1  UNL1       -0.0813
     14 C         142.8314  140.1389  166.8017 C.ar    1  UNL1        0.0314
     15 C         142.0649  139.7411  165.5752 C.ar    1  UNL1        0.0850
     16 C         142.8935  138.4084  159.8095 C.3     1  UNL1        0.4194
     17 F         143.0243  138.0629  158.3557 F       1  UNL1       -0.1658
     18 F         143.1072  136.9683  160.1710 F       1  UNL1       -0.1658
     19 F         142.6798  139.8484  159.4481 F       1  UNL1       -0.1658
     20 N         138.9728  138.0580  160.3139 N.1     1  UNL1       -0.1907
     21 C         140.1925  138.4052  161.1150 C.1     1  UNL1        0.1034
     22 N         145.0716  139.7936  164.3193 N.pl3   1  UNL1       -0.3154
     23 H         145.3872  139.1838  165.0248 H       1  UNL1        0.1485
     24 C         145.8106  141.0700  164.0453 C.3     1  UNL1        0.1176
     25 C         145.0524  142.3518  163.8663 C.ar    1  UNL1        0.0249
     26 C         144.6250  143.1442  165.0661 C.ar    1  UNL1       -0.0004
     27 C         143.8668  144.4261  164.8871 C.ar    1  UNL1       -0.0001
     28 C         143.5361  144.9156  163.5082 C.ar    1  UNL1        0.0023
     29 C         143.9635  144.1231  162.3085 C.ar    1  UNL1        0.0294
     30 C         144.7217  142.8412  162.4875 C.ar    1  UNL1        0.1377
     31 F         145.1491  142.0488  161.2878 F       1  UNL1       -0.2044
@<TRIPOS>BOND
     1    20    21    3
     2    21     1    1
     3     1     2   ar
     4     2    16    1
     5    16    17    1
     6    16    18    1
     7    16    19    1
     8     2     3   ar
     9     3     4   ar
    10     4    22    1
    11    22    24    1
    12    24    25    1
    13    25    26   ar
    14    26    27   ar
    15    27    28   ar
    16    28    29   ar
    17    29    30   ar
    18    30    31    1
    19     4     5   ar
    20     5     6   ar
    21     6     7   ar
    22     7     8   ar
    23     8     9   ar
    24     9    10   ar
    25    10    11    1
    26    10    12   ar
    27    12    13    1
    28    12    14   ar
    29    14    15   ar
    30     6     1   ar
    31    15     8   ar
    32    30    25   ar
    33    15     5   ar
    34    22    23    1
@<TRIPOS>MOLECULE
*****
 31 34 0 0 0
SMALL
GASTEIGER

@<TRIPOS>ATOM
      1 C         141.8133  143.1869  163.4817 C.ar    1  UNL1        0.1068
      2 C         140.6042  143.0327  162.6075 C.ar    1  UNL1        0.0867
      3 C         139.3640  142.3863  163.1499 C.ar    1  UNL1        0.0374
      4 C         139.3330  141.8942  164.5665 C.ar    1  UNL1        0.1143
      5 N         140.5420  142.0484  165.4408 N.ar    1  UNL1       -0.2782
      6 C         141.7822  142.6948  164.8984 C.ar    1  UNL1        0.1582
      7 N         142.8122  142.7090  165.9887 N.ar    1  UNL1       -0.2257
      8 C         142.2087  142.0714  167.2049 C.ar    1  UNL1        0.0999
      9 C         142.7555  141.8098  168.5770 C.ar    1  UNL1        0.0329
     10 C         141.8992  141.1400  169.6104 C.ar    1  UNL1        0.0698
     11 CL        142.4459  140.8784  170.9825 Cl      1  UNL1       -0.0813
     12 C         140.4961  140.7317  169.2718 C.ar    1  UNL1        0.0697
     13 CL        139.6398  140.0619  170.3053 Cl      1  UNL1       -0.0813
     14 C         139.9493  140.9933  167.8997 C.ar    1  UNL1        0.0314
     15 C         140.8056  141.6631  166.8663 C.ar    1  UNL1        0.0850
     16 C         140.6352  143.5249  161.1908 C.3     1  UNL1        0.4194
     17 F         140.6663  144.0170  159.7742 F       1  UNL1       -0.1658
     18 F         141.1421  142.1879  160.7375 F       1  UNL1       -0.1658
     19 F         140.1283  144.8619  161.6442 F       1  UNL1       -0.1658
     20 N         144.2935  144.4797  162.3968 N.1     1  UNL1       -0.1907
     21 C         143.0534  143.8333  162.9393 C.1     1  UNL1        0.1034
     22 N         138.0927  141.2478  165.1089 N.pl3   1  UNL1       -0.3154
     23 H         137.3358  141.8044  165.4031 H       1  UNL1        0.1485
     24 C         138.0058  139.7532  165.2031 C.3     1  UNL1        0.1176
     25 C         139.0158  138.8974  164.4979 C.ar    1  UNL1        0.0249
     26 C         140.1879  138.3440  165.2529 C.ar    1  UNL1       -0.0004
     27 C         141.1979  137.4881  164.5477 C.ar    1  UNL1       -0.0001
     28 C         141.0360  137.1857  163.0874 C.ar    1  UNL1        0.0023
     29 C         139.8639  137.7392  162.3323 C.ar    1  UNL1        0.0294
     30 C         138.8538  138.5950  163.0377 C.ar    1  UNL1        0.1377
     31 F         137.6818  139.1485  162.2826 F       1  UNL1       -0.2044
@<TRIPOS>BOND
     1    20    21    3
     2    21     1    1
     3     1     2   ar
     4     2    16    1
     5    16    17    1
     6    16    18    1
     7    16    19    1
     8     2     3   ar
     9     3     4   ar
    10     4    22    1
    11    22    24    1
    12    24    25    1
    13    25    26   ar
    14    26    27   ar
    15    27    28   ar
    16    28    29   ar
    17    29    30   ar
    18    30    31    1
    19     4     5   ar
    20     5     6   ar
    21     6     7   ar
    22     7     8   ar
    23     8     9   ar
    24     9    10   ar
    25    10    11    1
    26    10    12   ar
    27    12    13    1
    28    12    14   ar
    29    14    15   ar
    30     6     1   ar
    31    15     8   ar
    32    30    25   ar
    33    15     5   ar
    34    22    23    1
