@<TRIPOS>MOLECULE
*****
 34 37 0 0 0
SMALL
GASTEIGER

@<TRIPOS>ATOM
      1 C         138.6135  138.4636  165.4004 C.ar    1  UNL1        0.0977
      2 N         138.5059  138.5952  163.9100 N.ar    1  UNL1       -0.1720
      3 N         139.2927  139.8023  163.4933 N.ar    1  UNL1       -0.2444
      4 C         139.8866  140.4168  164.7261 C.ar    1  UNL1        0.1284
      5 C         140.7553  141.6229  164.9277 C.ar    1  UNL1        0.1550
      6 N         141.2043  142.0016  166.3079 N.ar    1  UNL1       -0.1970
      7 C         140.7846  141.1741  167.4865 C.ar    1  UNL1        0.2215
      8 N         139.9158  139.9681  167.2849 N.ar    1  UNL1       -0.2108
      9 C         139.4668  139.5894  165.9047 C.ar    1  UNL1        0.1193
     10 N         141.2336  141.5528  168.8668 N.pl3   1  UNL1       -0.2753
     11 C         140.5623  140.9506  170.0654 C.3     1  UNL1        0.1107
     12 C         141.0112  141.3292  171.4456 C.3     1  UNL1        0.0904
     13 N         142.1316  142.3101  171.6273 N.3     1  UNL1       -0.2946
     14 C         142.8029  142.9122  170.4286 C.3     1  UNL1        0.0904
     15 C         142.3539  142.5336  169.0484 C.3     1  UNL1        0.1107
     16 H         142.8570  141.8327  172.1622 H       1  UNL1        0.1233
     17 C         137.1042  137.7698  167.3980 C.3     1  UNL1        0.0068
     18 C         137.9793  137.3939  166.2391 C.3     1  UNL1        0.0492
     19 N         141.1750  142.4503  163.7490 N.pl3   1  UNL1       -0.2820
     20 H         140.5566  143.1156  163.3694 H       1  UNL1        0.1551
     21 C         142.5370  142.2640  163.1488 C.ar    1  UNL1        0.1366
     22 C         143.2891  143.4465  162.6140 C.ar    1  UNL1        0.0551
     23 C         144.6511  143.2602  162.0137 C.ar    1  UNL1        0.1036
     24 N         145.2610  141.8914  161.9483 N.ar    1  UNL1       -0.2223
     25 C         144.5089  140.7088  162.4832 C.ar    1  UNL1        0.2001
     26 N         143.1470  140.8951  163.0834 N.ar    1  UNL1       -0.2089
     27 C         139.4568  140.3065  162.0901 C.3     1  UNL1        0.1595
     28 C         138.4397  141.2412  161.5053 C.3     1  UNL1        0.1688
     29 O         137.5165  142.0049  162.4076 O.3     1  UNL1       -0.3435
     30 C         137.7575  143.4624  162.6674 C.3     1  UNL1        0.2459
     31 C         137.9918  143.9459  164.0679 C.3     1  UNL1        0.4248
     32 F         138.2260  144.4294  165.4683 F       1  UNL1       -0.1674
     33 F         137.3538  142.6992  164.6050 F       1  UNL1       -0.1674
     34 F         138.6298  145.1927  163.5307 F       1  UNL1       -0.1674
@<TRIPOS>BOND
     1    17    18    1
     2    18     1    1
     3     1     2   ar
     4     2     3   ar
     5     3    27    1
     6    27    28    1
     7    28    29    1
     8    29    30    1
     9    30    31    1
    10    31    32    1
    11    31    33    1
    12    31    34    1
    13     3     4   ar
    14     4     5   ar
    15     5    19    1
    16    19    21    1
    17    21    22   ar
    18    22    23   ar
    19    23    24   ar
    20    24    25   ar
    21    25    26   ar
    22     5     6   ar
    23     6     7   ar
    24     7    10    1
    25    10    11    1
    26    11    12    1
    27    12    13    1
    28    13    14    1
    29    14    15    1
    30     7     8   ar
    31     8     9   ar
    32     9     1   ar
    33     9     4   ar
    34    26    21   ar
    35    15    10    1
    36    19    20    1
    37    13    16    1
@<TRIPOS>MOLECULE
*****
 34 37 0 0 0
SMALL
GASTEIGER

@<TRIPOS>ATOM
      1 C         143.4516  142.3551  164.1194 C.ar    1  UNL1        0.0977
      2 N         142.8746  142.4451  162.7378 N.ar    1  UNL1       -0.1720
      3 N         141.4037  142.1664  162.8307 N.ar    1  UNL1       -0.2444
      4 C         141.0716  141.9041  164.2698 C.ar    1  UNL1        0.1284
      5 C         139.7802  141.5742  164.9578 C.ar    1  UNL1        0.1550
      6 N         139.7544  141.3609  166.4423 N.ar    1  UNL1       -0.1970
      7 C         141.0201  141.4775  167.2388 C.ar    1  UNL1        0.2215
      8 N         142.3115  141.8074  166.5508 N.ar    1  UNL1       -0.2108
      9 C         142.3373  142.0207  165.0663 C.ar    1  UNL1        0.1193
     10 N         140.9944  141.2641  168.7234 N.pl3   1  UNL1       -0.2753
     11 C         140.1212  140.1963  169.3126 C.3     1  UNL1        0.1107
     12 C         140.0955  139.9829  170.7971 C.3     1  UNL1        0.0904
     13 N         140.9430  140.8374  171.6924 N.3     1  UNL1       -0.2946
     14 C         141.8163  141.9052  171.1032 C.3     1  UNL1        0.0904
     15 C         141.8420  142.1185  169.6186 C.3     1  UNL1        0.1107
     16 H         141.5567  140.2060  172.2074 H       1  UNL1        0.1233
     17 C         145.9514  141.6824  163.8985 C.3     1  UNL1        0.0068
     18 C         144.8903  142.5628  164.4894 C.3     1  UNL1        0.0492
     19 N         138.5144  141.4577  164.1613 N.pl3   1  UNL1       -0.2820
     20 H         137.8321  142.1653  164.2150 H       1  UNL1        0.1551
     21 C         138.2884  140.2629  163.2829 C.ar    1  UNL1        0.1366
     22 C         138.8215  138.9212  163.6899 C.ar    1  UNL1        0.0551
     23 C         138.5955  137.7265  162.8115 C.ar    1  UNL1        0.1036
     24 N         137.8364  137.8735  161.5261 N.ar    1  UNL1       -0.2223
     25 C         137.3033  139.2152  161.1191 C.ar    1  UNL1        0.2001
     26 N         137.5293  140.4099  161.9975 N.ar    1  UNL1       -0.2089
     27 C         140.4349  142.1525  161.6856 C.3     1  UNL1        0.1595
     28 C         139.6860  143.4001  161.3215 C.3     1  UNL1        0.1688
     29 O         138.4997  143.8269  162.1342 O.3     1  UNL1       -0.3435
     30 C         138.5983  145.0224  163.0347 C.3     1  UNL1        0.2459
     31 C         138.8346  144.8369  164.5043 C.3     1  UNL1        0.4248
     32 F         139.0710  144.6515  165.9739 F       1  UNL1       -0.1674
     33 F         140.2919  145.1327  164.3073 F       1  UNL1       -0.1674
     34 F         137.3773  144.5411  164.7013 F       1  UNL1       -0.1674
@<TRIPOS>BOND
     1    17    18    1
     2    18     1    1
     3     1     2   ar
     4     2     3   ar
     5     3    27    1
     6    27    28    1
     7    28    29    1
     8    29    30    1
     9    30    31    1
    10    31    32    1
    11    31    33    1
    12    31    34    1
    13     3     4   ar
    14     4     5   ar
    15     5    19    1
    16    19    21    1
    17    21    22   ar
    18    22    23   ar
    19    23    24   ar
    20    24    25   ar
    21    25    26   ar
    22     5     6   ar
    23     6     7   ar
    24     7    10    1
    25    10    11    1
    26    11    12    1
    27    12    13    1
    28    13    14    1
    29    14    15    1
    30     7     8   ar
    31     8     9   ar
    32     9     1   ar
    33     9     4   ar
    34    26    21   ar
    35    15    10    1
    36    19    20    1
    37    13    16    1
@<TRIPOS>MOLECULE
*****
 34 37 0 0 0
SMALL
GASTEIGER

@<TRIPOS>ATOM
      1 C         139.0878  138.3550  165.1455 C.ar    1  UNL1        0.0977
      2 N         139.0986  138.4754  163.6504 N.ar    1  UNL1       -0.1720
      3 N         139.9101  139.6839  163.2885 N.ar    1  UNL1       -0.2444
      4 C         140.4008  140.3104  164.5601 C.ar    1  UNL1        0.1284
      5 C         141.2449  141.5226  164.8211 C.ar    1  UNL1        0.1550
      6 N         141.5806  141.9135  166.2297 N.ar    1  UNL1       -0.1970
      7 C         141.0724  141.0922  167.3774 C.ar    1  UNL1        0.2215
      8 N         140.2284  139.8800  167.1164 N.ar    1  UNL1       -0.2108
      9 C         139.8926  139.4891  165.7077 C.ar    1  UNL1        0.1193
     10 N         141.4082  141.4832  168.7861 N.pl3   1  UNL1       -0.2753
     11 C         140.6857  140.8434  169.9345 C.3     1  UNL1        0.1107
     12 C         141.0215  141.2342  171.3431 C.3     1  UNL1        0.0904
     13 N         142.0797  142.2650  171.6036 N.3     1  UNL1       -0.2946
     14 C         142.8022  142.9048  170.4552 C.3     1  UNL1        0.0904
     15 C         142.4664  142.5139  169.0465 C.3     1  UNL1        0.1107
     16 H         142.7886  141.8187  172.1855 H       1  UNL1        0.1233
     17 C         137.4018  137.6666  166.9985 C.3     1  UNL1        0.0068
     18 C         138.3939  137.2879  165.9391 C.3     1  UNL1        0.0492
     19 N         141.7531  142.3439  163.6733 N.pl3   1  UNL1       -0.2820
     20 H         142.6496  142.1726  163.3044 H       1  UNL1        0.1551
     21 C         140.8953  143.4261  163.0877 C.ar    1  UNL1        0.1366
     22 C         141.3991  144.2402  161.9330 C.ar    1  UNL1        0.0551
     23 C         140.5413  145.3224  161.3474 C.ar    1  UNL1        0.1036
     24 N         139.1796  145.5906  161.9165 N.ar    1  UNL1       -0.2223
     25 C         138.6757  144.7765  163.0713 C.ar    1  UNL1        0.2001
     26 N         139.5335  143.6943  163.6569 N.ar    1  UNL1       -0.2089
     27 C         140.1830  140.1790  161.8991 C.3     1  UNL1        0.1595
     28 C         141.4591  139.8031  161.2061 C.3     1  UNL1        0.1688
     29 O         142.7707  140.3218  161.7166 O.3     1  UNL1       -0.3435
     30 C         143.8167  139.3644  162.2056 C.3     1  UNL1        0.2459
     31 C         144.0465  139.1925  163.6779 C.3     1  UNL1        0.4248
     32 F         144.2761  139.0204  165.1502 F       1  UNL1       -0.1674
     33 F         142.8802  138.2519  163.7500 F       1  UNL1       -0.1674
     34 F         145.2127  140.1330  163.6058 F       1  UNL1       -0.1674
@<TRIPOS>BOND
     1    17    18    1
     2    18     1    1
     3     1     2   ar
     4     2     3   ar
     5     3    27    1
     6    27    28    1
     7    28    29    1
     8    29    30    1
     9    30    31    1
    10    31    32    1
    11    31    33    1
    12    31    34    1
    13     3     4   ar
    14     4     5   ar
    15     5    19    1
    16    19    21    1
    17    21    22   ar
    18    22    23   ar
    19    23    24   ar
    20    24    25   ar
    21    25    26   ar
    22     5     6   ar
    23     6     7   ar
    24     7    10    1
    25    10    11    1
    26    11    12    1
    27    12    13    1
    28    13    14    1
    29    14    15    1
    30     7     8   ar
    31     8     9   ar
    32     9     1   ar
    33     9     4   ar
    34    26    21   ar
    35    15    10    1
    36    19    20    1
    37    13    16    1
@<TRIPOS>MOLECULE
*****
 34 37 0 0 0
SMALL
GASTEIGER

@<TRIPOS>ATOM
      1 C         141.8300  142.0749  169.5387 C.ar    1  UNL1        0.0977
      2 N         140.6801  141.3395  170.1607 N.ar    1  UNL1       -0.1720
      3 N         139.8898  140.6980  169.0589 N.ar    1  UNL1       -0.2444
      4 C         140.5515  141.0368  167.7560 C.ar    1  UNL1        0.1284
      5 C         140.2169  140.6804  166.3379 C.ar    1  UNL1        0.1550
      6 N         141.0814  141.1749  165.2163 N.ar    1  UNL1       -0.1970
      7 C         142.2805  142.0259  165.5129 C.ar    1  UNL1        0.2215
      8 N         142.6151  142.3823  166.9310 N.ar    1  UNL1       -0.2108
      9 C         141.7506  141.8878  168.0526 C.ar    1  UNL1        0.1193
     10 N         143.1452  142.5205  164.3913 N.pl3   1  UNL1       -0.2753
     11 C         144.0678  141.5740  163.6822 C.3     1  UNL1        0.1107
     12 C         144.9324  142.0685  162.5606 C.3     1  UNL1        0.0904
     13 N         144.8744  143.5096  162.1481 N.3     1  UNL1       -0.2946
     14 C         143.9517  144.4560  162.8573 C.3     1  UNL1        0.0904
     15 C         143.0871  143.9614  163.9789 C.3     1  UNL1        0.1107
     16 H         144.6102  143.5234  161.1630 H       1  UNL1        0.1233
     17 C         144.3300  142.5849  170.0286 C.3     1  UNL1        0.0068
     18 C         142.8759  142.8596  170.2738 C.3     1  UNL1        0.0492
     19 N         139.0177  139.8294  166.0414 N.pl3   1  UNL1       -0.2820
     20 H         138.4447  139.5130  166.7768 H       1  UNL1        0.1551
     21 C         138.6917  139.4605  164.6245 C.ar    1  UNL1        0.1366
     22 C         139.0304  138.0933  164.1085 C.ar    1  UNL1        0.0551
     23 C         138.7044  137.7244  162.6916 C.ar    1  UNL1        0.1036
     24 N         138.0397  138.7226  161.7907 N.ar    1  UNL1       -0.2223
     25 C         137.7011  140.0899  162.3066 C.ar    1  UNL1        0.2001
     26 N         138.0271  140.4588  163.7235 N.ar    1  UNL1       -0.2089
     27 C         138.6548  139.8640  169.2300 C.3     1  UNL1        0.1595
     28 C         137.8190  140.0066  170.4674 C.3     1  UNL1        0.1688
     29 O         137.5464  138.8103  171.3303 O.3     1  UNL1       -0.3435
     30 C         136.1400  138.3214  171.5119 C.3     1  UNL1        0.2459
     31 C         135.8363  137.2781  172.5459 C.3     1  UNL1        0.4248
     32 F         135.5327  136.2348  173.5800 F       1  UNL1       -0.1674
     33 F         137.1682  136.6372  172.2904 F       1  UNL1       -0.1674
     34 F         134.5045  137.9191  172.8015 F       1  UNL1       -0.1674
@<TRIPOS>BOND
     1    17    18    1
     2    18     1    1
     3     1     2   ar
     4     2     3   ar
     5     3    27    1
     6    27    28    1
     7    28    29    1
     8    29    30    1
     9    30    31    1
    10    31    32    1
    11    31    33    1
    12    31    34    1
    13     3     4   ar
    14     4     5   ar
    15     5    19    1
    16    19    21    1
    17    21    22   ar
    18    22    23   ar
    19    23    24   ar
    20    24    25   ar
    21    25    26   ar
    22     5     6   ar
    23     6     7   ar
    24     7    10    1
    25    10    11    1
    26    11    12    1
    27    12    13    1
    28    13    14    1
    29    14    15    1
    30     7     8   ar
    31     8     9   ar
    32     9     1   ar
    33     9     4   ar
    34    26    21   ar
    35    15    10    1
    36    19    20    1
    37    13    16    1
@<TRIPOS>MOLECULE
*****
 34 37 0 0 0
SMALL
GASTEIGER

@<TRIPOS>ATOM
      1 C         138.6223  137.9810  165.5931 C.ar    1  UNL1        0.0977
      2 N         138.6884  137.8655  164.0990 N.ar    1  UNL1       -0.1720
      3 N         139.7115  138.8440  163.6032 N.ar    1  UNL1       -0.2444
      4 C         140.2777  139.5643  164.7910 C.ar    1  UNL1        0.1284
      5 C         141.3193  140.6369  164.9116 C.ar    1  UNL1        0.1550
      6 N         141.6878  141.1762  166.2619 N.ar    1  UNL1       -0.1970
      7 C         141.0146  140.6428  167.4916 C.ar    1  UNL1        0.2215
      8 N         139.9730  139.5702  167.3711 N.ar    1  UNL1       -0.2108
      9 C         139.6046  139.0309  166.0208 C.ar    1  UNL1        0.1193
     10 N         141.3831  141.1821  168.8420 N.pl3   1  UNL1       -0.2753
     11 C         142.3909  142.2869  168.9589 C.3     1  UNL1        0.1107
     12 C         142.7594  142.8262  170.3092 C.3     1  UNL1        0.0904
     13 N         142.1200  142.2606  171.5427 N.3     1  UNL1       -0.2946
     14 C         141.1122  141.1558  171.4258 C.3     1  UNL1        0.0904
     15 C         140.7437  140.6166  170.0754 C.3     1  UNL1        0.1107
     16 H         141.6540  143.0356  172.0146 H       1  UNL1        0.1233
     17 C         136.9607  137.8755  167.5876 C.3     1  UNL1        0.0068
     18 C         137.7306  137.1862  166.5003 C.3     1  UNL1        0.0492
     19 N         141.9925  141.1703  163.6817 N.pl3   1  UNL1       -0.2820
     20 H         142.2074  140.5643  162.9361 H       1  UNL1        0.1551
     21 C         142.3381  142.6269  163.5878 C.ar    1  UNL1        0.1366
     22 C         141.3087  143.6651  163.9231 C.ar    1  UNL1        0.0551
     23 C         141.6544  145.1217  163.8292 C.ar    1  UNL1        0.1036
     24 N         143.0294  145.5401  163.4001 N.ar    1  UNL1       -0.2223
     25 C         144.0589  144.5019  163.0648 C.ar    1  UNL1        0.2001
     26 N         143.7132  143.0453  163.1587 N.ar    1  UNL1       -0.2089
     27 C         140.1001  139.0637  162.1712 C.3     1  UNL1        0.1595
     28 C         139.4748  140.1791  161.3871 C.3     1  UNL1        0.1688
     29 O         139.1627  141.4841  162.0574 O.3     1  UNL1       -0.3435
     30 C         137.8235  141.6963  162.6989 C.3     1  UNL1        0.2459
     31 C         137.6604  142.7355  163.7682 C.3     1  UNL1        0.4248
     32 F         137.4972  143.7747  164.8375 F       1  UNL1       -0.1674
     33 F         137.4955  143.7920  162.7163 F       1  UNL1       -0.1674
     34 F         137.8253  141.6790  164.8201 F       1  UNL1       -0.1674
@<TRIPOS>BOND
     1    17    18    1
     2    18     1    1
     3     1     2   ar
     4     2     3   ar
     5     3    27    1
     6    27    28    1
     7    28    29    1
     8    29    30    1
     9    30    31    1
    10    31    32    1
    11    31    33    1
    12    31    34    1
    13     3     4   ar
    14     4     5   ar
    15     5    19    1
    16    19    21    1
    17    21    22   ar
    18    22    23   ar
    19    23    24   ar
    20    24    25   ar
    21    25    26   ar
    22     5     6   ar
    23     6     7   ar
    24     7    10    1
    25    10    11    1
    26    11    12    1
    27    12    13    1
    28    13    14    1
    29    14    15    1
    30     7     8   ar
    31     8     9   ar
    32     9     1   ar
    33     9     4   ar
    34    26    21   ar
    35    15    10    1
    36    19    20    1
    37    13    16    1
@<TRIPOS>MOLECULE
*****
 34 37 0 0 0
SMALL
GASTEIGER

@<TRIPOS>ATOM
      1 C         138.7032  138.5138  165.4105 C.ar    1  UNL1        0.0977
      2 N         138.6558  138.6417  163.9167 N.ar    1  UNL1       -0.1720
      3 N         139.4993  139.8187  163.5253 N.ar    1  UNL1       -0.2444
      4 C         140.0680  140.4182  164.7772 C.ar    1  UNL1        0.1284
      5 C         140.9704  141.5942  165.0067 C.ar    1  UNL1        0.1550
      6 N         141.3807  141.9638  166.4013 N.ar    1  UNL1       -0.1970
      7 C         140.8887  141.1573  167.5664 C.ar    1  UNL1        0.2215
      8 N         139.9864  139.9812  167.3369 N.ar    1  UNL1       -0.2108
      9 C         139.5760  139.6117  165.9423 C.ar    1  UNL1        0.1193
     10 N         141.2991  141.5268  168.9611 N.pl3   1  UNL1       -0.2753
     11 C         140.6225  140.8861  170.1366 C.3     1  UNL1        0.1107
     12 C         141.0328  141.2556  171.5312 C.3     1  UNL1        0.0904
     13 N         142.1198  142.2658  171.7505 N.3     1  UNL1       -0.2946
     14 C         142.7964  142.9065  170.5750 C.3     1  UNL1        0.0904
     15 C         142.3860  142.5370  169.1803 C.3     1  UNL1        0.1107
     16 H         142.8484  141.8014  172.2925 H       1  UNL1        0.1233
     17 C         137.1415  137.8805  167.3879 C.3     1  UNL1        0.0068
     18 C         138.0012  137.4710  166.2288 C.3     1  UNL1        0.0492
     19 N         141.4623  142.4007  163.8416 N.pl3   1  UNL1       -0.2820
     20 H         140.8632  143.0464  163.4018 H       1  UNL1        0.1551
     21 C         142.8671  142.2234  163.3464 C.ar    1  UNL1        0.1366
     22 C         143.1737  142.3835  161.8869 C.ar    1  UNL1        0.0551
     23 C         144.5785  142.2061  161.3918 C.ar    1  UNL1        0.1036
     24 N         145.6767  141.8687  162.3562 N.ar    1  UNL1       -0.2223
     25 C         145.3701  141.7085  163.8158 C.ar    1  UNL1        0.2001
     26 N         143.9653  141.8859  164.3109 N.ar    1  UNL1       -0.2089
     27 C         139.7330  140.3100  162.1274 C.3     1  UNL1        0.1595
     28 C         140.4641  139.4475  161.1418 C.3     1  UNL1        0.1688
     29 O         141.9346  139.2017  161.3063 O.3     1  UNL1       -0.3435
     30 C         142.4153  137.9492  161.9772 C.3     1  UNL1        0.2459
     31 C         142.2042  137.7589  163.4500 C.3     1  UNL1        0.4248
     32 F         141.9932  137.5688  164.9228 F       1  UNL1       -0.1674
     33 F         143.2868  138.7576  163.7341 F       1  UNL1       -0.1674
     34 F         141.1217  136.7603  163.1658 F       1  UNL1       -0.1674
@<TRIPOS>BOND
     1    17    18    1
     2    18     1    1
     3     1     2   ar
     4     2     3   ar
     5     3    27    1
     6    27    28    1
     7    28    29    1
     8    29    30    1
     9    30    31    1
    10    31    32    1
    11    31    33    1
    12    31    34    1
    13     3     4   ar
    14     4     5   ar
    15     5    19    1
    16    19    21    1
    17    21    22   ar
    18    22    23   ar
    19    23    24   ar
    20    24    25   ar
    21    25    26   ar
    22     5     6   ar
    23     6     7   ar
    24     7    10    1
    25    10    11    1
    26    11    12    1
    27    12    13    1
    28    13    14    1
    29    14    15    1
    30     7     8   ar
    31     8     9   ar
    32     9     1   ar
    33     9     4   ar
    34    26    21   ar
    35    15    10    1
    36    19    20    1
    37    13    16    1
@<TRIPOS>MOLECULE
*****
 34 37 0 0 0
SMALL
GASTEIGER

@<TRIPOS>ATOM
      1 C         141.7599  138.9897  163.3570 C.ar    1  UNL1        0.0977
      2 N         141.7403  139.7434  162.0602 N.ar    1  UNL1       -0.1720
      3 N         141.8492  141.2064  162.3728 N.ar    1  UNL1       -0.2444
      4 C         141.9361  141.3569  163.8627 C.ar    1  UNL1        0.1284
      5 C         142.0583  142.5644  164.7441 C.ar    1  UNL1        0.1550
      6 N         142.1254  142.4020  166.2338 N.ar    1  UNL1       -0.1970
      7 C         142.0702  141.0320  166.8420 C.ar    1  UNL1        0.2215
      8 N         141.9479  139.8244  165.9606 N.ar    1  UNL1       -0.2108
      9 C         141.8809  139.9869  164.4710 C.ar    1  UNL1        0.1193
     10 N         142.1372  140.8695  168.3317 N.pl3   1  UNL1       -0.2753
     11 C         142.5192  139.5459  168.9253 C.3     1  UNL1        0.1107
     12 C         142.5862  139.3834  170.4150 C.3     1  UNL1        0.0904
     13 N         142.2714  140.5444  171.3111 N.3     1  UNL1       -0.2946
     14 C         141.8894  141.8679  170.7175 C.3     1  UNL1        0.0904
     15 C         141.8224  142.0305  169.2277 C.3     1  UNL1        0.1107
     16 H         143.0991  140.7067  171.8845 H       1  UNL1        0.1233
     17 C         140.7389  136.9046  164.5231 C.3     1  UNL1        0.0068
     18 C         141.6736  137.5003  163.5125 C.3     1  UNL1        0.0492
     19 N         142.1135  143.9345  164.1358 N.pl3   1  UNL1       -0.2820
     20 H         142.9485  144.4549  164.1699 H       1  UNL1        0.1551
     21 C         140.8965  144.5115  163.4756 C.ar    1  UNL1        0.1366
     22 C         139.5347  143.9883  163.8246 C.ar    1  UNL1        0.0551
     23 C         138.3177  144.5653  163.1644 C.ar    1  UNL1        0.1036
     24 N         138.4624  145.6656  162.1553 N.ar    1  UNL1       -0.2223
     25 C         139.8242  146.1889  161.8063 C.ar    1  UNL1        0.2001
     26 N         141.0413  145.6118  162.4664 N.ar    1  UNL1       -0.2089
     27 C         141.8679  142.3230  161.3713 C.3     1  UNL1        0.1595
     28 C         143.1718  142.9403  160.9607 C.3     1  UNL1        0.1688
     29 O         144.2318  143.2072  161.9879 O.3     1  UNL1       -0.3435
     30 C         145.3595  142.2354  162.1719 C.3     1  UNL1        0.2459
     31 C         145.3411  141.2746  163.3237 C.3     1  UNL1        0.4248
     32 F         145.3228  140.3138  164.4753 F       1  UNL1       -0.1674
     33 F         144.9228  140.1718  162.3970 F       1  UNL1       -0.1674
     34 F         145.7594  142.3775  164.2504 F       1  UNL1       -0.1674
@<TRIPOS>BOND
     1    17    18    1
     2    18     1    1
     3     1     2   ar
     4     2     3   ar
     5     3    27    1
     6    27    28    1
     7    28    29    1
     8    29    30    1
     9    30    31    1
    10    31    32    1
    11    31    33    1
    12    31    34    1
    13     3     4   ar
    14     4     5   ar
    15     5    19    1
    16    19    21    1
    17    21    22   ar
    18    22    23   ar
    19    23    24   ar
    20    24    25   ar
    21    25    26   ar
    22     5     6   ar
    23     6     7   ar
    24     7    10    1
    25    10    11    1
    26    11    12    1
    27    12    13    1
    28    13    14    1
    29    14    15    1
    30     7     8   ar
    31     8     9   ar
    32     9     1   ar
    33     9     4   ar
    34    26    21   ar
    35    15    10    1
    36    19    20    1
    37    13    16    1
@<TRIPOS>MOLECULE
*****
 34 37 0 0 0
SMALL
GASTEIGER

@<TRIPOS>ATOM
      1 C         140.6904  142.0534  169.5961 C.ar    1  UNL1        0.0977
      2 N         141.4692  140.8960  170.1473 N.ar    1  UNL1       -0.1720
      3 N         142.0043  140.1046  168.9909 N.ar    1  UNL1       -0.2444
      4 C         141.5561  140.7730  167.7249 C.ar    1  UNL1        0.1284
      5 C         141.7826  140.4404  166.2799 C.ar    1  UNL1        0.1550
      6 N         141.1970  141.3123  165.2090 N.ar    1  UNL1       -0.1970
      7 C         140.3850  142.5167  165.5831 C.ar    1  UNL1        0.2215
      8 N         140.1586  142.8493  167.0281 N.ar    1  UNL1       -0.2108
      9 C         140.7441  141.9774  168.0990 C.ar    1  UNL1        0.1193
     10 N         139.7995  143.3886  164.5121 N.pl3   1  UNL1       -0.2753
     11 C         138.3711  143.2045  164.0928 C.3     1  UNL1        0.1107
     12 C         137.7855  144.0764  163.0219 C.3     1  UNL1        0.0904
     13 N         138.6283  145.1324  162.3702 N.3     1  UNL1       -0.2946
     14 C         140.0566  145.3166  162.7895 C.3     1  UNL1        0.0904
     15 C         140.6422  144.4446  163.8605 C.3     1  UNL1        0.1107
     16 H         138.1578  146.0236  162.5281 H       1  UNL1        0.1233
     17 C         140.3101  144.5522  170.1973 C.3     1  UNL1        0.0068
     18 C         139.9822  143.1027  170.4008 C.3     1  UNL1        0.0492
     19 N         142.5946  139.2359  165.9058 N.pl3   1  UNL1       -0.2820
     20 H         143.0861  138.7389  166.5991 H       1  UNL1        0.1551
     21 C         142.6577  138.7887  164.4754 C.ar    1  UNL1        0.1366
     22 C         143.8727  139.0891  163.6487 C.ar    1  UNL1        0.0551
     23 C         143.9358  138.6419  162.2183 C.ar    1  UNL1        0.1036
     24 N         142.7840  137.8943  161.6147 N.ar    1  UNL1       -0.2223
     25 C         141.5690  137.5939  162.4415 C.ar    1  UNL1        0.2001
     26 N         141.5058  138.0411  163.8718 N.ar    1  UNL1       -0.2089
     27 C         142.8406  138.8629  169.0839 C.3     1  UNL1        0.1595
     28 C         142.8187  138.0360  170.3352 C.3     1  UNL1        0.1688
     29 O         144.1066  137.6216  170.9830 O.3     1  UNL1       -0.3435
     30 C         144.4113  136.1666  171.1833 C.3     1  UNL1        0.2459
     31 C         145.5238  135.7526  172.1003 C.3     1  UNL1        0.4248
     32 F         146.6362  135.3386  173.0173 F       1  UNL1       -0.1674
     33 F         145.0316  134.3363  172.0580 F       1  UNL1       -0.1674
     34 F         146.0159  137.1689  172.1426 F       1  UNL1       -0.1674
@<TRIPOS>BOND
     1    17    18    1
     2    18     1    1
     3     1     2   ar
     4     2     3   ar
     5     3    27    1
     6    27    28    1
     7    28    29    1
     8    29    30    1
     9    30    31    1
    10    31    32    1
    11    31    33    1
    12    31    34    1
    13     3     4   ar
    14     4     5   ar
    15     5    19    1
    16    19    21    1
    17    21    22   ar
    18    22    23   ar
    19    23    24   ar
    20    24    25   ar
    21    25    26   ar
    22     5     6   ar
    23     6     7   ar
    24     7    10    1
    25    10    11    1
    26    11    12    1
    27    12    13    1
    28    13    14    1
    29    14    15    1
    30     7     8   ar
    31     8     9   ar
    32     9     1   ar
    33     9     4   ar
    34    26    21   ar
    35    15    10    1
    36    19    20    1
    37    13    16    1
@<TRIPOS>MOLECULE
*****
 34 37 0 0 0
SMALL
GASTEIGER

@<TRIPOS>ATOM
      1 C         137.8699  142.6448  162.3517 C.ar    1  UNL1        0.0977
      2 N         137.5164  141.2653  162.8229 N.ar    1  UNL1       -0.1720
      3 N         137.8760  140.2975  161.7348 N.ar    1  UNL1       -0.2444
      4 C         138.4518  141.0789  160.5911 C.ar    1  UNL1        0.1284
      5 C         138.9790  140.6568  159.2518 C.ar    1  UNL1        0.1550
      6 N         139.5024  141.6854  158.2937 N.ar    1  UNL1       -0.1970
      7 C         139.4987  143.1361  158.6750 C.ar    1  UNL1        0.2215
      8 N         138.9714  143.5582  160.0143 N.ar    1  UNL1       -0.2108
      9 C         138.4480  142.5296  160.9724 C.ar    1  UNL1        0.1193
     10 N         140.0221  144.1648  157.7169 N.pl3   1  UNL1       -0.2753
     11 C         141.2624  144.9392  158.0517 C.3     1  UNL1        0.1107
     12 C         141.7858  145.9678  157.0937 C.3     1  UNL1        0.0904
     13 N         141.0690  146.2222  155.8008 N.3     1  UNL1       -0.2946
     14 C         139.8288  145.4478  155.4660 C.3     1  UNL1        0.0904
     15 C         139.3053  144.4191  156.4240 C.3     1  UNL1        0.1107
     16 H         141.7388  146.0433  155.0526 H       1  UNL1        0.1233
     17 C         137.9001  143.9331  164.6077 C.3     1  UNL1        0.0068
     18 C         137.6789  143.9163  163.1242 C.3     1  UNL1        0.0492
     19 N         138.9828  139.2060  158.8705 N.pl3   1  UNL1       -0.2820
     20 H         138.1390  138.6991  158.8545 H       1  UNL1        0.1551
     21 C         140.2722  138.5277  158.5137 C.ar    1  UNL1        0.1366
     22 C         140.4048  137.8109  157.2028 C.ar    1  UNL1        0.0551
     23 C         141.6942  137.1326  156.8460 C.ar    1  UNL1        0.1036
     24 N         142.8510  137.1711  157.8001 N.ar    1  UNL1       -0.2223
     25 C         142.7184  137.8879  159.1111 C.ar    1  UNL1        0.2001
     26 N         141.4290  138.5662  159.4679 N.ar    1  UNL1       -0.2089
     27 C         137.6922  138.8096  161.7821 C.3     1  UNL1        0.1595
     28 C         138.8269  137.9269  162.2102 C.3     1  UNL1        0.1688
     29 O         138.9868  137.5587  163.6554 O.3     1  UNL1       -0.3435
     30 C         139.1199  138.6337  164.6930 C.3     1  UNL1        0.2459
     31 C         138.1906  138.6591  165.8702 C.3     1  UNL1        0.4248
     32 F         137.2613  138.6846  167.0473 F       1  UNL1       -0.1674
     33 F         138.1341  140.1561  165.7933 F       1  UNL1       -0.1674
     34 F         138.2470  137.1622  165.9470 F       1  UNL1       -0.1674
@<TRIPOS>BOND
     1    17    18    1
     2    18     1    1
     3     1     2   ar
     4     2     3   ar
     5     3    27    1
     6    27    28    1
     7    28    29    1
     8    29    30    1
     9    30    31    1
    10    31    32    1
    11    31    33    1
    12    31    34    1
    13     3     4   ar
    14     4     5   ar
    15     5    19    1
    16    19    21    1
    17    21    22   ar
    18    22    23   ar
    19    23    24   ar
    20    24    25   ar
    21    25    26   ar
    22     5     6   ar
    23     6     7   ar
    24     7    10    1
    25    10    11    1
    26    11    12    1
    27    12    13    1
    28    13    14    1
    29    14    15    1
    30     7     8   ar
    31     8     9   ar
    32     9     1   ar
    33     9     4   ar
    34    26    21   ar
    35    15    10    1
    36    19    20    1
    37    13    16    1
