@<TRIPOS>MOLECULE
*****
 31 34 0 0 0
SMALL
GASTEIGER

@<TRIPOS>ATOM
      1 C         143.5109  143.2763  161.4580 C.3     1  UNL1        0.0719
      2 C         142.5515  144.0111  160.5693 C.ar    1  UNL1        0.1229
      3 N         142.7288  143.9728  159.0803 N.ar    1  UNL1       -0.2306
      4 C         141.7694  144.7075  158.1916 C.ar    1  UNL1        0.1065
      5 C         141.9468  144.6693  156.7026 C.ar    1  UNL1        0.1213
      6 N         140.9874  145.4040  155.8140 N.ar    1  UNL1       -0.2082
      7 C         139.8507  146.1770  156.4143 C.ar    1  UNL1        0.2300
      8 C         139.6733  146.2152  157.9032 C.ar    1  UNL1        0.0644
      9 C         140.6327  145.4805  158.7919 C.ar    1  UNL1        0.0800
     10 C         140.4553  145.5187  160.2809 C.ar    1  UNL1        0.2633
     11 O         139.3186  146.2917  160.8812 O.2     1  UNL1       -0.2669
     12 N         141.4147  144.7840  161.1696 N.ar    1  UNL1       -0.2840
     13 O         138.8913  146.9117  155.5255 O.3     1  UNL1       -0.4338
     14 C         139.1431  148.3483  155.1755 C.ar    1  UNL1        0.1745
     15 C         139.8559  148.6962  153.9024 C.ar    1  UNL1        0.0408
     16 C         140.1078  150.1330  153.5523 C.ar    1  UNL1        0.0147
     17 C         139.6468  151.2217  154.4754 C.ar    1  UNL1        0.0601
     18 CL        139.8987  152.6584  154.1254 Cl      1  UNL1       -0.0822
     19 C         138.9340  150.8738  155.7485 C.ar    1  UNL1        0.0442
     20 C         138.6821  149.4372  156.0986 C.ar    1  UNL1        0.1753
     21 F         137.9693  149.0892  157.3717 F       1  UNL1       -0.2009
     22 C         141.2374  144.8223  162.6586 C.3     1  UNL1        0.1115
     23 C         140.0924  144.0929  163.2965 C.3     1  UNL1        0.0388
     24 C         139.0648  144.8515  164.0832 C.3     1  UNL1        0.0048
     25 C         137.9198  144.1221  164.7211 C.3     1  UNL1        0.0174
     26 C         137.8023  142.6341  164.5723 C.3     1  UNL1        0.0720
     27 N         138.8298  141.8755  163.7857 N.3     1  UNL1       -0.2739
     28 C         139.9748  142.6049  163.1478 C.3     1  UNL1        0.0739
     29 C         138.7123  140.3876  163.6369 C.3     1  UNL1        0.0576
     30 C         138.8759  139.7535  162.2874 C.3     1  UNL1        0.0173
     31 C         138.4312  139.5336  164.8377 C.3     1  UNL1        0.0173
@<TRIPOS>BOND
     1     1     2    1
     2     2     3   ar
     3     3     4   ar
     4     4     5   ar
     5     5     6   ar
     6     6     7   ar
     7     7    13    1
     8    13    14    1
     9    14    15   ar
    10    15    16   ar
    11    16    17   ar
    12    17    18    1
    13    17    19   ar
    14    19    20   ar
    15    20    21    1
    16     7     8   ar
    17     8     9   ar
    18     9    10   ar
    19    10    11    2
    20    10    12   ar
    21    12    22    1
    22    23    22    1
    23    23    24    1
    24    24    25    1
    25    25    26    1
    26    26    27    1
    27    27    29    1
    28    29    30    1
    29    29    31    1
    30    27    28    1
    31    12     2   ar
    32    28    23    1
    33     9     4   ar
    34    20    14   ar
@<TRIPOS>MOLECULE
*****
 31 34 0 0 0
SMALL
GASTEIGER

@<TRIPOS>ATOM
      1 C         143.6216  138.8704  164.9001 C.3     1  UNL1        0.0719
      2 C         143.7918  139.7012  163.6628 C.ar    1  UNL1        0.1229
      3 N         143.6919  139.0610  162.3100 N.ar    1  UNL1       -0.2306
      4 C         143.8622  139.8919  161.0727 C.ar    1  UNL1        0.1065
      5 C         143.7623  139.2517  159.7198 C.ar    1  UNL1        0.1213
      6 N         143.9325  140.0825  158.4826 N.ar    1  UNL1       -0.2082
      7 C         144.2026  141.5535  158.5982 C.ar    1  UNL1        0.2300
      8 C         144.3025  142.1936  159.9511 C.ar    1  UNL1        0.0644
      9 C         144.1323  141.3628  161.1883 C.ar    1  UNL1        0.0800
     10 C         144.2322  142.0029  162.5412 C.ar    1  UNL1        0.2633
     11 O         144.5023  143.4739  162.6568 O.2     1  UNL1       -0.2669
     12 N         144.0619  141.1721  163.7784 N.ar    1  UNL1       -0.2840
     13 O         144.3728  142.3843  157.3609 O.3     1  UNL1       -0.4338
     14 C         145.5779  142.1925  156.4887 C.ar    1  UNL1        0.1745
     15 C         145.4235  141.6166  155.1122 C.ar    1  UNL1        0.0408
     16 C         146.6287  141.4248  154.2400 C.ar    1  UNL1        0.0147
     17 C         147.9882  141.8089  154.7441 C.ar    1  UNL1        0.0601
     18 CL        149.1933  141.6171  153.8719 Cl      1  UNL1       -0.0822
     19 C         148.1426  142.3848  156.1205 C.ar    1  UNL1        0.0442
     20 C         146.9375  142.5766  156.9928 C.ar    1  UNL1        0.1753
     21 F         147.0919  143.1525  158.3692 F       1  UNL1       -0.2009
     22 C         144.1618  141.8123  165.1313 C.3     1  UNL1        0.1115
     23 C         142.9157  142.1542  165.8931 C.3     1  UNL1        0.0388
     24 C         142.9050  142.0689  167.3907 C.3     1  UNL1        0.0048
     25 C         141.6588  142.4109  168.1524 C.3     1  UNL1        0.0174
     26 C         140.4235  142.8382  167.4165 C.3     1  UNL1        0.0720
     27 N         140.4343  142.9235  165.9190 N.3     1  UNL1       -0.2739
     28 C         141.6804  142.5815  165.1573 C.3     1  UNL1        0.0739
     29 C         139.1990  143.3508  165.1833 C.3     1  UNL1        0.0576
     30 C         138.4042  142.3448  164.4046 C.3     1  UNL1        0.0173
     31 C         138.7584  144.7840  165.2262 C.3     1  UNL1        0.0173
@<TRIPOS>BOND
     1     1     2    1
     2     2     3   ar
     3     3     4   ar
     4     4     5   ar
     5     5     6   ar
     6     6     7   ar
     7     7    13    1
     8    13    14    1
     9    14    15   ar
    10    15    16   ar
    11    16    17   ar
    12    17    18    1
    13    17    19   ar
    14    19    20   ar
    15    20    21    1
    16     7     8   ar
    17     8     9   ar
    18     9    10   ar
    19    10    11    2
    20    10    12   ar
    21    12    22    1
    22    23    22    1
    23    23    24    1
    24    24    25    1
    25    25    26    1
    26    26    27    1
    27    27    29    1
    28    29    30    1
    29    29    31    1
    30    27    28    1
    31    12     2   ar
    32    28    23    1
    33     9     4   ar
    34    20    14   ar
@<TRIPOS>MOLECULE
*****
 31 34 0 0 0
SMALL
GASTEIGER

@<TRIPOS>ATOM
      1 C         144.8688  140.2551  164.3370 C.3     1  UNL1        0.0719
      2 C         144.1060  139.6823  163.1793 C.ar    1  UNL1        0.1229
      3 N         144.4533  140.0886  161.7778 N.ar    1  UNL1       -0.2306
      4 C         143.6906  139.5158  160.6200 C.ar    1  UNL1        0.1065
      5 C         144.0378  139.9221  159.2185 C.ar    1  UNL1        0.1213
      6 N         143.2751  139.3493  158.0609 N.ar    1  UNL1       -0.2082
      7 C         142.1652  138.3703  158.3047 C.ar    1  UNL1        0.2300
      8 C         141.8180  137.9639  159.7063 C.ar    1  UNL1        0.0644
      9 C         142.5807  138.5367  160.8639 C.ar    1  UNL1        0.0800
     10 C         142.2334  138.1304  162.2655 C.ar    1  UNL1        0.2633
     11 O         141.1235  137.1513  162.5094 O.2     1  UNL1       -0.2669
     12 N         142.9961  138.7032  163.4231 N.ar    1  UNL1       -0.2840
     13 O         141.4025  137.7975  157.1470 O.3     1  UNL1       -0.4338
     14 C         141.8437  136.5067  156.5232 C.ar    1  UNL1        0.1745
     15 C         143.1538  135.8921  156.9180 C.ar    1  UNL1        0.0408
     16 C         143.5950  134.6013  156.2942 C.ar    1  UNL1        0.0147
     17 C         142.7261  133.9251  155.2755 C.ar    1  UNL1        0.0601
     18 CL        143.1673  132.6343  154.6517 Cl      1  UNL1       -0.0822
     19 C         141.4160  134.5397  154.8806 C.ar    1  UNL1        0.0442
     20 C         140.9748  135.8304  155.5044 C.ar    1  UNL1        0.1753
     21 F         139.6647  136.4450  155.1096 F       1  UNL1       -0.2009
     22 C         142.6489  138.2969  164.8248 C.3     1  UNL1        0.1115
     23 C         141.6516  139.0945  165.6116 C.3     1  UNL1        0.0388
     24 C         140.1844  138.8235  165.4564 C.3     1  UNL1        0.0048
     25 C         139.1871  139.6211  166.2432 C.3     1  UNL1        0.0174
     26 C         139.6569  140.6898  167.1852 C.3     1  UNL1        0.0720
     27 N         141.1240  140.9608  167.3403 N.3     1  UNL1       -0.2739
     28 C         142.1214  140.1632  166.5535 C.3     1  UNL1        0.0739
     29 C         141.5938  142.0295  168.2822 C.3     1  UNL1        0.0576
     30 C         140.6031  142.9648  168.9095 C.3     1  UNL1        0.0173
     31 C         143.0544  142.1628  168.5969 C.3     1  UNL1        0.0173
@<TRIPOS>BOND
     1     1     2    1
     2     2     3   ar
     3     3     4   ar
     4     4     5   ar
     5     5     6   ar
     6     6     7   ar
     7     7    13    1
     8    13    14    1
     9    14    15   ar
    10    15    16   ar
    11    16    17   ar
    12    17    18    1
    13    17    19   ar
    14    19    20   ar
    15    20    21    1
    16     7     8   ar
    17     8     9   ar
    18     9    10   ar
    19    10    11    2
    20    10    12   ar
    21    12    22    1
    22    23    22    1
    23    23    24    1
    24    24    25    1
    25    25    26    1
    26    26    27    1
    27    27    29    1
    28    29    30    1
    29    29    31    1
    30    27    28    1
    31    12     2   ar
    32    28    23    1
    33     9     4   ar
    34    20    14   ar
@<TRIPOS>MOLECULE
*****
 31 34 0 0 0
SMALL
GASTEIGER

@<TRIPOS>ATOM
      1 C         144.6670  138.0532  155.2997 C.3     1  UNL1        0.0719
      2 C         143.4046  138.1000  156.1085 C.ar    1  UNL1        0.1229
      3 N         143.3867  138.8083  157.4306 N.ar    1  UNL1       -0.2306
      4 C         142.1243  138.8551  158.2395 C.ar    1  UNL1        0.1065
      5 C         142.1065  139.5634  159.5616 C.ar    1  UNL1        0.1213
      6 N         140.8442  139.6101  160.3704 N.ar    1  UNL1       -0.2082
      7 C         139.5996  138.9486  159.8571 C.ar    1  UNL1        0.2300
      8 C         139.6174  138.2404  158.5350 C.ar    1  UNL1        0.0644
      9 C         140.8798  138.1936  157.7262 C.ar    1  UNL1        0.0800
     10 C         140.8976  137.4853  156.4040 C.ar    1  UNL1        0.2633
     11 O         139.6530  136.8238  155.8907 O.2     1  UNL1       -0.2669
     12 N         142.1600  137.4385  155.5952 N.ar    1  UNL1       -0.2840
     13 O         138.3372  138.9954  160.6659 O.3     1  UNL1       -0.4338
     14 C         138.4066  139.0136  162.1642 C.ar    1  UNL1        0.1745
     15 C         138.9107  137.8115  162.9063 C.ar    1  UNL1        0.0408
     16 C         138.9802  137.8297  164.4046 C.ar    1  UNL1        0.0147
     17 C         138.5456  139.0501  165.1608 C.ar    1  UNL1        0.0601
     18 CL        138.6150  139.0683  166.6590 Cl      1  UNL1       -0.0822
     19 C         138.0415  140.2522  164.4187 C.ar    1  UNL1        0.0442
     20 C         137.9720  140.2340  162.9204 C.ar    1  UNL1        0.1753
     21 F         137.4680  141.4362  162.1783 F       1  UNL1       -0.2009
     22 C         142.1778  136.7303  154.2730 C.3     1  UNL1        0.1115
     23 C         142.4193  135.2508  154.2180 C.3     1  UNL1        0.0388
     24 C         141.8576  134.4408  153.0872 C.3     1  UNL1        0.0048
     25 C         142.0991  132.9614  153.0321 C.3     1  UNL1        0.0174
     26 C         142.9023  132.2920  154.1078 C.3     1  UNL1        0.0720
     27 N         143.4639  133.1020  155.2384 N.3     1  UNL1       -0.2739
     28 C         143.2225  134.5815  155.2935 C.3     1  UNL1        0.0739
     29 C         144.2671  132.4326  156.3139 C.3     1  UNL1        0.0576
     30 C         144.9262  131.1122  156.0459 C.3     1  UNL1        0.0173
     31 C         144.4111  133.0837  157.6576 C.3     1  UNL1        0.0173
@<TRIPOS>BOND
     1     1     2    1
     2     2     3   ar
     3     3     4   ar
     4     4     5   ar
     5     5     6   ar
     6     6     7   ar
     7     7    13    1
     8    13    14    1
     9    14    15   ar
    10    15    16   ar
    11    16    17   ar
    12    17    18    1
    13    17    19   ar
    14    19    20   ar
    15    20    21    1
    16     7     8   ar
    17     8     9   ar
    18     9    10   ar
    19    10    11    2
    20    10    12   ar
    21    12    22    1
    22    23    22    1
    23    23    24    1
    24    24    25    1
    25    25    26    1
    26    26    27    1
    27    27    29    1
    28    29    30    1
    29    29    31    1
    30    27    28    1
    31    12     2   ar
    32    28    23    1
    33     9     4   ar
    34    20    14   ar
@<TRIPOS>MOLECULE
*****
 31 34 0 0 0
SMALL
GASTEIGER

@<TRIPOS>ATOM
      1 C         139.3187  139.3462  164.0865 C.3     1  UNL1        0.0719
      2 C         140.2273  138.9927  162.9464 C.ar    1  UNL1        0.1229
      3 N         139.6836  138.9145  161.5507 N.ar    1  UNL1       -0.2306
      4 C         140.5921  138.5610  160.4106 C.ar    1  UNL1        0.1065
      5 C         140.0484  138.4827  159.0148 C.ar    1  UNL1        0.1213
      6 N         140.9569  138.1293  157.8748 N.ar    1  UNL1       -0.2082
      7 C         142.4091  137.8541  158.1306 C.ar    1  UNL1        0.2300
      8 C         142.9528  137.9323  159.5264 C.ar    1  UNL1        0.0644
      9 C         142.0443  138.2858  160.6664 C.ar    1  UNL1        0.0800
     10 C         142.5879  138.3641  162.0622 C.ar    1  UNL1        0.2633
     11 O         144.0401  138.0889  162.3180 O.2     1  UNL1       -0.2669
     12 N         141.6794  138.7175  163.2022 N.ar    1  UNL1       -0.2840
     13 O         143.3176  137.5006  156.9905 O.3     1  UNL1       -0.4338
     14 C         143.0323  136.2903  156.1516 C.ar    1  UNL1        0.1745
     15 C         142.7010  136.4471  154.6971 C.ar    1  UNL1        0.0408
     16 C         142.4157  135.2367  153.8582 C.ar    1  UNL1        0.0147
     17 C         142.4617  133.8697  154.4738 C.ar    1  UNL1        0.0601
     18 CL        142.1764  132.6594  153.6349 Cl      1  UNL1       -0.0822
     19 C         142.7931  133.7129  155.9283 C.ar    1  UNL1        0.0442
     20 C         143.0784  134.9232  156.7672 C.ar    1  UNL1        0.1753
     21 F         143.4097  134.7664  158.2218 F       1  UNL1       -0.2009
     22 C         142.2231  138.7958  164.5981 C.3     1  UNL1        0.1115
     23 C         142.7211  140.1042  165.1367 C.3     1  UNL1        0.0388
     24 C         143.5764  140.9908  164.2808 C.3     1  UNL1        0.0048
     25 C         144.0744  142.2992  164.8194 C.3     1  UNL1        0.0174
     26 C         143.7171  142.7210  166.2139 C.3     1  UNL1        0.0720
     27 N         142.8619  141.8343  167.0698 N.3     1  UNL1       -0.2739
     28 C         142.3639  140.5260  166.5311 C.3     1  UNL1        0.0739
     29 C         142.5047  142.2561  168.4642 C.3     1  UNL1        0.0576
     30 C         141.0866  142.6109  168.8004 C.3     1  UNL1        0.0173
     31 C         143.5657  142.3231  169.5225 C.3     1  UNL1        0.0173
@<TRIPOS>BOND
     1     1     2    1
     2     2     3   ar
     3     3     4   ar
     4     4     5   ar
     5     5     6   ar
     6     6     7   ar
     7     7    13    1
     8    13    14    1
     9    14    15   ar
    10    15    16   ar
    11    16    17   ar
    12    17    18    1
    13    17    19   ar
    14    19    20   ar
    15    20    21    1
    16     7     8   ar
    17     8     9   ar
    18     9    10   ar
    19    10    11    2
    20    10    12   ar
    21    12    22    1
    22    23    22    1
    23    23    24    1
    24    24    25    1
    25    25    26    1
    26    26    27    1
    27    27    29    1
    28    29    30    1
    29    29    31    1
    30    27    28    1
    31    12     2   ar
    32    28    23    1
    33     9     4   ar
    34    20    14   ar
@<TRIPOS>MOLECULE
*****
 31 34 0 0 0
SMALL
GASTEIGER

@<TRIPOS>ATOM
      1 C         138.4076  144.6536  163.1280 C.3     1  UNL1        0.0719
      2 C         138.3991  143.4916  162.1794 C.ar    1  UNL1        0.1229
      3 N         138.7688  143.6957  160.7401 N.ar    1  UNL1       -0.2306
      4 C         138.7604  142.5336  159.7915 C.ar    1  UNL1        0.1065
      5 C         139.1300  142.7377  158.3522 C.ar    1  UNL1        0.1213
      6 N         139.1216  141.5757  157.4037 N.ar    1  UNL1       -0.2082
      7 C         138.7435  140.2097  157.8945 C.ar    1  UNL1        0.2300
      8 C         138.3738  140.0056  159.3338 C.ar    1  UNL1        0.0644
      9 C         138.3823  141.1676  160.2823 C.ar    1  UNL1        0.0800
     10 C         138.0126  140.9635  161.7217 C.ar    1  UNL1        0.2633
     11 O         137.6345  139.5974  162.2125 O.2     1  UNL1       -0.2669
     12 N         138.0211  142.1255  162.6702 N.ar    1  UNL1       -0.2840
     13 O         138.7350  139.0477  156.9459 O.3     1  UNL1       -0.4338
     14 C         139.9393  138.1602  156.8364 C.ar    1  UNL1        0.1745
     15 C         141.1330  138.4043  157.7114 C.ar    1  UNL1        0.0408
     16 C         142.3373  137.5168  157.6017 C.ar    1  UNL1        0.0147
     17 C         142.3480  136.3852  156.6171 C.ar    1  UNL1        0.0601
     18 CL        143.5523  135.4978  156.5076 Cl      1  UNL1       -0.0822
     19 C         141.1543  136.1412  155.7421 C.ar    1  UNL1        0.0442
     20 C         139.9500  137.0286  155.8517 C.ar    1  UNL1        0.1753
     21 F         138.7564  136.7845  154.9767 F       1  UNL1       -0.2009
     22 C         137.6514  141.9214  164.1096 C.3     1  UNL1        0.1115
     23 C         138.6097  141.2396  165.0406 C.3     1  UNL1        0.0388
     24 C         138.2328  139.9376  165.6833 C.3     1  UNL1        0.0048
     25 C         139.1911  139.2558  166.6143 C.3     1  UNL1        0.0174
     26 C         140.5262  139.8759  166.9026 C.3     1  UNL1        0.0720
     27 N         140.9030  141.1777  166.2599 N.3     1  UNL1       -0.2739
     28 C         139.9447  141.8596  165.3289 C.3     1  UNL1        0.0739
     29 C         142.2381  141.7977  166.5482 C.3     1  UNL1        0.0576
     30 C         142.5844  142.2163  167.9464 C.3     1  UNL1        0.0173
     31 C         143.2268  141.9992  165.4383 C.3     1  UNL1        0.0173
@<TRIPOS>BOND
     1     1     2    1
     2     2     3   ar
     3     3     4   ar
     4     4     5   ar
     5     5     6   ar
     6     6     7   ar
     7     7    13    1
     8    13    14    1
     9    14    15   ar
    10    15    16   ar
    11    16    17   ar
    12    17    18    1
    13    17    19   ar
    14    19    20   ar
    15    20    21    1
    16     7     8   ar
    17     8     9   ar
    18     9    10   ar
    19    10    11    2
    20    10    12   ar
    21    12    22    1
    22    23    22    1
    23    23    24    1
    24    24    25    1
    25    25    26    1
    26    26    27    1
    27    27    29    1
    28    29    30    1
    29    29    31    1
    30    27    28    1
    31    12     2   ar
    32    28    23    1
    33     9     4   ar
    34    20    14   ar
@<TRIPOS>MOLECULE
*****
 31 34 0 0 0
SMALL
GASTEIGER

@<TRIPOS>ATOM
      1 C         138.5235  139.8758  159.3465 C.3     1  UNL1        0.0719
      2 C         138.4941  139.9703  160.8433 C.ar    1  UNL1        0.1229
      3 N         138.6842  138.7376  161.6765 N.ar    1  UNL1       -0.2306
      4 C         138.6548  138.8321  163.1733 C.ar    1  UNL1        0.1065
      5 C         138.8449  137.5994  164.0065 C.ar    1  UNL1        0.1213
      6 N         138.8155  137.6939  165.5032 N.ar    1  UNL1       -0.2082
      7 C         138.5960  139.0212  166.1667 C.ar    1  UNL1        0.2300
      8 C         138.4059  140.2539  165.3335 C.ar    1  UNL1        0.0644
      9 C         138.4353  140.1593  163.8368 C.ar    1  UNL1        0.0800
     10 C         138.2452  141.3921  163.0035 C.ar    1  UNL1        0.2633
     11 O         138.0257  142.7193  163.6670 O.2     1  UNL1       -0.2669
     12 N         138.2746  141.2975  161.5068 N.ar    1  UNL1       -0.2840
     13 O         138.5666  139.1157  167.6634 O.3     1  UNL1       -0.4338
     14 C         139.5327  140.0140  168.3773 C.ar    1  UNL1        0.1745
     15 C         140.8653  140.3224  167.7617 C.ar    1  UNL1        0.0408
     16 C         141.8314  141.2207  168.4757 C.ar    1  UNL1        0.0147
     17 C         141.4649  141.8106  169.8052 C.ar    1  UNL1        0.0601
     18 CL        142.4310  142.7088  170.5191 Cl      1  UNL1       -0.0822
     19 C         140.1323  141.5022  170.4208 C.ar    1  UNL1        0.0442
     20 C         139.1662  140.6039  169.7069 C.ar    1  UNL1        0.1753
     21 F         137.8335  140.2955  170.3226 F       1  UNL1       -0.2009
     22 C         138.0845  142.5303  160.6735 C.3     1  UNL1        0.1115
     23 C         139.2779  143.2934  160.1801 C.3     1  UNL1        0.0388
     24 C         140.2747  143.8412  161.1582 C.3     1  UNL1        0.0048
     25 C         141.4681  144.6043  160.6648 C.3     1  UNL1        0.0174
     26 C         141.6648  144.8196  159.1933 C.3     1  UNL1        0.0720
     27 N         140.6681  144.2718  158.2154 N.3     1  UNL1       -0.2739
     28 C         139.4746  143.5087  158.7088 C.3     1  UNL1        0.0739
     29 C         140.8648  144.4871  156.7440 C.3     1  UNL1        0.0576
     30 C         142.2130  144.8805  156.2173 C.3     1  UNL1        0.0173
     31 C         139.7132  144.3091  155.7994 C.3     1  UNL1        0.0173
@<TRIPOS>BOND
     1     1     2    1
     2     2     3   ar
     3     3     4   ar
     4     4     5   ar
     5     5     6   ar
     6     6     7   ar
     7     7    13    1
     8    13    14    1
     9    14    15   ar
    10    15    16   ar
    11    16    17   ar
    12    17    18    1
    13    17    19   ar
    14    19    20   ar
    15    20    21    1
    16     7     8   ar
    17     8     9   ar
    18     9    10   ar
    19    10    11    2
    20    10    12   ar
    21    12    22    1
    22    23    22    1
    23    23    24    1
    24    24    25    1
    25    25    26    1
    26    26    27    1
    27    27    29    1
    28    29    30    1
    29    29    31    1
    30    27    28    1
    31    12     2   ar
    32    28    23    1
    33     9     4   ar
    34    20    14   ar
@<TRIPOS>MOLECULE
*****
 31 34 0 0 0
SMALL
GASTEIGER

@<TRIPOS>ATOM
      1 C         139.9788  137.3991  164.5495 C.3     1  UNL1        0.0719
      2 C         139.4253  138.2255  163.4266 C.ar    1  UNL1        0.1229
      3 N         139.7924  137.9051  162.0080 N.ar    1  UNL1       -0.2306
      4 C         139.2389  138.7314  160.8851 C.ar    1  UNL1        0.1065
      5 C         139.6059  138.4110  159.4664 C.ar    1  UNL1        0.1213
      6 N         139.0524  139.2374  158.3436 N.ar    1  UNL1       -0.2082
      7 C         138.1319  140.3841  158.6395 C.ar    1  UNL1        0.2300
      8 C         137.7649  140.7046  160.0581 C.ar    1  UNL1        0.0644
      9 C         138.3184  139.8782  161.1809 C.ar    1  UNL1        0.0800
     10 C         137.9513  140.1986  162.5996 C.ar    1  UNL1        0.2633
     11 O         137.0308  141.3454  162.8954 O.2     1  UNL1       -0.2669
     12 N         138.5048  139.3723  163.7224 N.ar    1  UNL1       -0.2840
     13 O         137.5784  141.2105  157.5165 O.3     1  UNL1       -0.4338
     14 C         138.2624  142.4834  157.1142 C.ar    1  UNL1        0.1745
     15 C         139.5839  142.8493  157.7224 C.ar    1  UNL1        0.0408
     16 C         140.2679  144.1223  157.3200 C.ar    1  UNL1        0.0147
     17 C         139.6304  145.0292  156.3096 C.ar    1  UNL1        0.0601
     18 CL        140.3144  146.3021  155.9073 Cl      1  UNL1       -0.0822
     19 C         138.3090  144.6633  155.7015 C.ar    1  UNL1        0.0442
     20 C         137.6250  143.3904  156.1038 C.ar    1  UNL1        0.1753
     21 F         136.3035  143.0245  155.4956 F       1  UNL1       -0.2009
     22 C         138.1378  139.6927  165.1411 C.3     1  UNL1        0.1115
     23 C         139.0889  140.4661  166.0055 C.3     1  UNL1        0.0388
     24 C         139.5461  141.8308  165.5829 C.3     1  UNL1        0.0048
     25 C         140.4973  142.6042  166.4473 C.3     1  UNL1        0.0174
     26 C         140.9913  142.0128  167.7343 C.3     1  UNL1        0.0720
     27 N         140.5342  140.6481  168.1568 N.3     1  UNL1       -0.2739
     28 C         139.5830  139.8747  167.2924 C.3     1  UNL1        0.0739
     29 C         141.0282  140.0567  169.4437 C.3     1  UNL1        0.0576
     30 C         142.3605  139.3690  169.4905 C.3     1  UNL1        0.0173
     31 C         140.1900  140.1531  170.6840 C.3     1  UNL1        0.0173
@<TRIPOS>BOND
     1     1     2    1
     2     2     3   ar
     3     3     4   ar
     4     4     5   ar
     5     5     6   ar
     6     6     7   ar
     7     7    13    1
     8    13    14    1
     9    14    15   ar
    10    15    16   ar
    11    16    17   ar
    12    17    18    1
    13    17    19   ar
    14    19    20   ar
    15    20    21    1
    16     7     8   ar
    17     8     9   ar
    18     9    10   ar
    19    10    11    2
    20    10    12   ar
    21    12    22    1
    22    23    22    1
    23    23    24    1
    24    24    25    1
    25    25    26    1
    26    26    27    1
    27    27    29    1
    28    29    30    1
    29    29    31    1
    30    27    28    1
    31    12     2   ar
    32    28    23    1
    33     9     4   ar
    34    20    14   ar
@<TRIPOS>MOLECULE
*****
 31 34 0 0 0
SMALL
GASTEIGER

@<TRIPOS>ATOM
      1 C         138.6470  140.2503  159.0123 C.3     1  UNL1        0.0719
      2 C         139.5846  139.2550  158.3956 C.ar    1  UNL1        0.1229
      3 N         139.1780  138.5066  157.1610 N.ar    1  UNL1       -0.2306
      4 C         140.1156  137.5112  156.5443 C.ar    1  UNL1        0.1065
      5 C         139.7089  136.7628  155.3096 C.ar    1  UNL1        0.1213
      6 N         140.6465  135.7675  154.6930 N.ar    1  UNL1       -0.2082
      7 C         141.9908  135.5206  155.3111 C.ar    1  UNL1        0.2300
      8 C         142.3975  136.2690  156.5458 C.ar    1  UNL1        0.0644
      9 C         141.4599  137.2643  157.1624 C.ar    1  UNL1        0.0800
     10 C         141.8665  138.0128  158.3971 C.ar    1  UNL1        0.2633
     11 O         143.2108  137.7659  159.0152 O.2     1  UNL1       -0.2669
     12 N         140.9289  139.0081  159.0137 N.ar    1  UNL1       -0.2840
     13 O         142.9284  134.5252  154.6944 O.3     1  UNL1       -0.4338
     14 C         143.0975  133.1700  155.3146 C.ar    1  UNL1        0.1745
     15 C         144.3372  132.8527  156.0971 C.ar    1  UNL1        0.0408
     16 C         144.5063  131.4973  156.7174 C.ar    1  UNL1        0.0147
     17 C         143.4356  130.4594  156.5550 C.ar    1  UNL1        0.0601
     18 CL        143.6047  129.1042  157.1752 Cl      1  UNL1       -0.0822
     19 C         142.1959  130.7768  155.7725 C.ar    1  UNL1        0.0442
     20 C         142.0268  132.1320  155.1523 C.ar    1  UNL1        0.1753
     21 F         140.7871  132.4493  154.3698 F       1  UNL1       -0.2009
     22 C         141.3355  139.7566  160.2484 C.3     1  UNL1        0.1115
     23 C         141.3735  139.0538  161.5731 C.3     1  UNL1        0.0388
     24 C         140.2765  138.1023  161.9490 C.3     1  UNL1        0.0048
     25 C         140.3144  137.3996  163.2736 C.3     1  UNL1        0.0174
     26 C         141.4495  137.6483  164.2223 C.3     1  UNL1        0.0720
     27 N         142.5464  138.5997  163.8464 N.3     1  UNL1       -0.2739
     28 C         142.5085  139.3024  162.5217 C.3     1  UNL1        0.0739
     29 C         143.6814  138.8483  164.7950 C.3     1  UNL1        0.0576
     30 C         144.9060  139.5759  164.3251 C.3     1  UNL1        0.0173
     31 C         143.5917  138.3693  166.2137 C.3     1  UNL1        0.0173
@<TRIPOS>BOND
     1     1     2    1
     2     2     3   ar
     3     3     4   ar
     4     4     5   ar
     5     5     6   ar
     6     6     7   ar
     7     7    13    1
     8    13    14    1
     9    14    15   ar
    10    15    16   ar
    11    16    17   ar
    12    17    18    1
    13    17    19   ar
    14    19    20   ar
    15    20    21    1
    16     7     8   ar
    17     8     9   ar
    18     9    10   ar
    19    10    11    2
    20    10    12   ar
    21    12    22    1
    22    23    22    1
    23    23    24    1
    24    24    25    1
    25    25    26    1
    26    26    27    1
    27    27    29    1
    28    29    30    1
    29    29    31    1
    30    27    28    1
    31    12     2   ar
    32    28    23    1
    33     9     4   ar
    34    20    14   ar
