@<TRIPOS>MOLECULE
*****
 31 35 0 0 0
SMALL
GASTEIGER

@<TRIPOS>ATOM
      1 C         143.6129  139.4797  162.3052 C.3     1  UNL1        0.0181
      2 C         143.2505  138.3089  161.4401 C.3     1  UNL1        0.0036
      3 C         142.8921  137.3501  160.3437 C.3     1  UNL1        0.0227
      4 C         142.8354  138.1180  159.0564 C.3     1  UNL1        0.0884
      5 C         143.1587  139.5515  159.3572 C.3     1  UNL1        0.0227
      6 C         143.4152  139.6695  160.8304 C.3     1  UNL1        0.0036
      7 N         142.5121  137.5518  157.7055 N.ar    1  UNL1       -0.2964
      8 C         141.7982  138.2676  156.5974 C.ar    1  UNL1        0.1796
      9 N         141.6909  137.3286  155.4326 N.ar    1  UNL1       -0.2223
     10 C         142.3383  136.0324  155.8209 C.ar    1  UNL1        0.1178
     11 C         142.5313  134.7444  155.0768 C.ar    1  UNL1        0.0341
     12 C         143.2318  133.5943  155.7375 C.ar    1  UNL1        0.0892
     13 C         143.7393  133.7323  157.1423 C.ar    1  UNL1        0.1108
     14 N         143.5464  135.0203  157.8863 N.ar    1  UNL1       -0.2245
     15 C         142.8459  136.1704  157.2257 C.ar    1  UNL1        0.1627
     16 C         143.4248  132.3062  154.9934 C.1     1  UNL1        0.1020
     17 N         143.6178  131.0182  154.2493 N.1     1  UNL1       -0.1908
     18 C         143.9362  140.0458  163.6560 C.3     1  UNL1        0.0718
     19 N         142.8463  140.2403  164.6681 N.am    1  UNL1       -0.3025
     20 C         142.8506  139.4416  165.9378 C.2     1  UNL1        0.2458
     21 O         143.9447  138.4483  166.1953 O.2     1  UNL1       -0.2701
     22 H         142.1282  140.8922  164.4991 H       1  UNL1        0.1497
     23 C         141.7607  139.6361  166.9499 C.ar    1  UNL1        0.0534
     24 C         140.3327  139.7422  166.5034 C.ar    1  UNL1        0.0054
     25 C         139.2429  139.9368  167.5155 C.ar    1  UNL1        0.0115
     26 C         139.5810  140.0252  168.9742 C.ar    1  UNL1        0.0577
     27 CL        138.4912  140.2197  169.9862 Cl      1  UNL1       -0.0822
     28 C         141.0091  139.9191  169.4208 C.ar    1  UNL1        0.0115
     29 C         142.0990  139.7246  168.4087 C.ar    1  UNL1        0.0054
     30 C         145.9169  141.7214  163.5178 C.3     1  UNL1        0.0017
     31 C         145.3494  140.4175  163.9949 C.3     1  UNL1        0.0196
@<TRIPOS>BOND
     1    30    31    1
     2    31    18    1
     3    18    19    1
     4    19    20   am
     5    20    21    2
     6    20    23    1
     7    23    24   ar
     8    24    25   ar
     9    25    26   ar
    10    26    27    1
    11    26    28   ar
    12    28    29   ar
    13     1    18    1
    14     1     2    1
    15     2     3    1
    16     3     4    1
    17     4     7    1
    18     7     8   ar
    19     8     9   ar
    20     9    10   ar
    21    10    11   ar
    22    11    12   ar
    23    12    16    1
    24    16    17    3
    25    12    13   ar
    26    13    14   ar
    27    14    15   ar
    28     4     5    1
    29     6     5    1
    30    29    23   ar
    31     6     1    1
    32     6     2    1
    33    15     7   ar
    34    15    10   ar
    35    19    22    1
@<TRIPOS>MOLECULE
*****
 31 35 0 0 0
SMALL
GASTEIGER

@<TRIPOS>ATOM
      1 C         140.3816  145.0625  158.4379 C.3     1  UNL1        0.0181
      2 C         140.3406  145.5440  159.8580 C.3     1  UNL1        0.0036
      3 C         140.2534  145.7224  161.3448 C.3     1  UNL1        0.0227
      4 C         140.0243  144.3742  161.9609 C.3     1  UNL1        0.0884
      5 C         139.9698  143.3623  160.8549 C.3     1  UNL1        0.0227
      6 C         140.1653  144.0853  159.5552 C.3     1  UNL1        0.0036
      7 N         139.8757  144.0879  163.4258 N.ar    1  UNL1       -0.2964
      8 C         138.9577  144.7999  164.3746 C.ar    1  UNL1        0.1796
      9 N         139.1337  144.1914  165.7343 N.ar    1  UNL1       -0.2223
     10 C         140.1605  143.1033  165.6258 C.ar    1  UNL1        0.1178
     11 C         140.7372  142.1625  166.6418 C.ar    1  UNL1        0.0341
     12 C         141.7724  141.1577  166.2311 C.ar    1  UNL1        0.0892
     13 C         142.2309  141.0937  164.8043 C.ar    1  UNL1        0.1108
     14 N         141.6543  142.0345  163.7883 N.ar    1  UNL1       -0.2245
     15 C         140.6191  143.0393  164.1991 C.ar    1  UNL1        0.1627
     16 C         142.3490  140.2168  167.2471 C.1     1  UNL1        0.1020
     17 N         142.9257  139.2759  168.2631 N.1     1  UNL1       -0.1908
     18 C         140.5302  145.3487  156.9731 C.3     1  UNL1        0.0718
     19 N         140.4560  146.7612  156.4735 N.am    1  UNL1       -0.3025
     20 C         139.2751  147.2095  155.6645 C.2     1  UNL1        0.2458
     21 O         138.1684  146.2455  155.3551 O.2     1  UNL1       -0.2701
     22 H         141.1824  147.3939  156.6766 H       1  UNL1        0.1497
     23 C         139.2009  148.6220  155.1650 C.ar    1  UNL1        0.0534
     24 C         138.5458  149.6802  156.0022 C.ar    1  UNL1        0.0054
     25 C         138.4716  151.0926  155.5027 C.ar    1  UNL1        0.0115
     26 C         139.0526  151.4468  154.1659 C.ar    1  UNL1        0.0577
     27 CL        138.9784  152.8593  153.6664 Cl      1  UNL1       -0.0822
     28 C         139.7077  150.3887  153.3287 C.ar    1  UNL1        0.0115
     29 C         139.7819  148.9762  153.8282 C.ar    1  UNL1        0.0054
     30 C         139.7659  143.0960  155.9286 C.3     1  UNL1        0.0017
     31 C         140.7530  144.2225  156.0075 C.3     1  UNL1        0.0196
@<TRIPOS>BOND
     1    30    31    1
     2    31    18    1
     3    18    19    1
     4    19    20   am
     5    20    21    2
     6    20    23    1
     7    23    24   ar
     8    24    25   ar
     9    25    26   ar
    10    26    27    1
    11    26    28   ar
    12    28    29   ar
    13     1    18    1
    14     1     2    1
    15     2     3    1
    16     3     4    1
    17     4     7    1
    18     7     8   ar
    19     8     9   ar
    20     9    10   ar
    21    10    11   ar
    22    11    12   ar
    23    12    16    1
    24    16    17    3
    25    12    13   ar
    26    13    14   ar
    27    14    15   ar
    28     4     5    1
    29     6     5    1
    30    29    23   ar
    31     6     1    1
    32     6     2    1
    33    15     7   ar
    34    15    10   ar
    35    19    22    1
@<TRIPOS>MOLECULE
*****
 31 35 0 0 0
SMALL
GASTEIGER

@<TRIPOS>ATOM
      1 C         140.9240  144.4587  158.7198 C.3     1  UNL1        0.0181
      2 C         140.1357  144.1676  159.9624 C.3     1  UNL1        0.0036
      3 C         139.6275  143.8043  161.3261 C.3     1  UNL1        0.0227
      4 C         140.8022  143.3975  162.1654 C.3     1  UNL1        0.0884
      5 C         142.0365  143.5095  161.3205 C.3     1  UNL1        0.0227
      6 C         141.6246  143.9854  159.9589 C.3     1  UNL1        0.0036
      7 N         140.7517  142.9563  163.5982 N.ar    1  UNL1       -0.2964
      8 C         141.5305  143.5533  164.7326 C.ar    1  UNL1        0.1796
      9 N         141.1735  142.8065  165.9835 N.ar    1  UNL1       -0.2223
     10 C         140.1741  141.7479  165.6222 C.ar    1  UNL1        0.1178
     11 C         139.4678  140.7117  166.4452 C.ar    1  UNL1        0.0341
     12 C         138.5007  139.7680  165.7938 C.ar    1  UNL1        0.0892
     13 C         138.2400  139.8606  164.3196 C.ar    1  UNL1        0.1108
     14 N         138.9463  140.8968  163.4966 N.ar    1  UNL1       -0.2245
     15 C         139.9134  141.8405  164.1480 C.ar    1  UNL1        0.1627
     16 C         137.7944  138.7317  166.6168 C.1     1  UNL1        0.1020
     17 N         137.0881  137.6954  167.4397 N.1     1  UNL1       -0.1908
     18 C         140.9746  144.8999  157.2871 C.3     1  UNL1        0.0718
     19 N         140.7131  146.3342  156.9344 N.am    1  UNL1       -0.3025
     20 C         139.4862  146.7030  156.1543 C.2     1  UNL1        0.2458
     21 O         138.5207  145.6375  155.7269 O.2     1  UNL1       -0.2701
     22 H         141.3468  147.0335  157.2149 H       1  UNL1        0.1497
     23 C         139.2247  148.1374  155.8015 C.ar    1  UNL1        0.0534
     24 C         139.7337  148.6958  154.5058 C.ar    1  UNL1        0.0054
     25 C         139.4722  150.1301  154.1531 C.ar    1  UNL1        0.0115
     26 C         138.7017  151.0059  155.0961 C.ar    1  UNL1        0.0577
     27 CL        138.4403  152.4402  154.7433 Cl      1  UNL1       -0.0822
     28 C         138.1927  150.4475  156.3919 C.ar    1  UNL1        0.0115
     29 C         138.4542  149.0132  156.7446 C.ar    1  UNL1        0.0054
     30 C         140.5924  142.5774  156.1871 C.3     1  UNL1        0.0017
     31 C         141.2867  143.9068  156.2070 C.3     1  UNL1        0.0196
@<TRIPOS>BOND
     1    30    31    1
     2    31    18    1
     3    18    19    1
     4    19    20   am
     5    20    21    2
     6    20    23    1
     7    23    24   ar
     8    24    25   ar
     9    25    26   ar
    10    26    27    1
    11    26    28   ar
    12    28    29   ar
    13     1    18    1
    14     1     2    1
    15     2     3    1
    16     3     4    1
    17     4     7    1
    18     7     8   ar
    19     8     9   ar
    20     9    10   ar
    21    10    11   ar
    22    11    12   ar
    23    12    16    1
    24    16    17    3
    25    12    13   ar
    26    13    14   ar
    27    14    15   ar
    28     4     5    1
    29     6     5    1
    30    29    23   ar
    31     6     1    1
    32     6     2    1
    33    15     7   ar
    34    15    10   ar
    35    19    22    1
@<TRIPOS>MOLECULE
*****
 31 35 0 0 0
SMALL
GASTEIGER

@<TRIPOS>ATOM
      1 C         142.6770  137.5276  157.7259 C.3     1  UNL1        0.0181
      2 C         141.6238  138.4021  158.3392 C.3     1  UNL1        0.0036
      3 C         140.7386  139.2386  159.2147 C.3     1  UNL1        0.0227
      4 C         141.3215  139.2403  160.5968 C.3     1  UNL1        0.0884
      5 C         142.5670  138.4048  160.5755 C.3     1  UNL1        0.0227
      6 C         142.7539  137.8867  159.1803 C.3     1  UNL1        0.0036
      7 N         140.7578  139.9525  161.7906 N.ar    1  UNL1       -0.2964
      8 C         140.8409  141.4260  162.0586 C.ar    1  UNL1        0.1796
      9 N         140.1466  141.7003  163.3596 N.ar    1  UNL1       -0.2223
     10 C         139.6345  140.3963  163.8957 C.ar    1  UNL1        0.1178
     11 C         138.8730  140.0530  165.1416 C.ar    1  UNL1        0.0341
     12 C         138.4893  138.6295  165.4177 C.ar    1  UNL1        0.0892
     13 C         138.8671  137.5493  164.4480 C.ar    1  UNL1        0.1108
     14 N         139.6286  137.8926  163.2021 N.ar    1  UNL1       -0.2245
     15 C         140.0123  139.3161  162.9260 C.ar    1  UNL1        0.1627
     16 C         137.7277  138.2861  166.6636 C.1     1  UNL1        0.1020
     17 N         136.9662  137.9428  167.9095 N.1     1  UNL1       -0.1908
     18 C         143.2406  136.8155  156.5321 C.3     1  UNL1        0.0718
     19 N         143.2331  135.3164  156.4804 N.am    1  UNL1       -0.3025
     20 C         142.0588  134.5922  155.8918 C.2     1  UNL1        0.2458
     21 O         140.8921  135.3670  155.3548 O.2     1  UNL1       -0.2701
     22 H         143.9988  134.8078  156.8329 H       1  UNL1        0.1497
     23 C         142.0512  133.0930  155.8401 C.ar    1  UNL1        0.0534
     24 C         141.1077  132.3791  154.9182 C.ar    1  UNL1        0.0054
     25 C         141.1001  130.8800  154.8665 C.ar    1  UNL1        0.0115
     26 C         142.0362  130.0949  155.7367 C.ar    1  UNL1        0.0577
     27 CL        142.0286  128.5958  155.6850 Cl      1  UNL1       -0.0822
     28 C         142.9797  130.8088  156.6587 C.ar    1  UNL1        0.0115
     29 C         142.9873  132.3078  156.7104 C.ar    1  UNL1        0.0054
     30 C         142.9132  138.4505  154.5398 C.3     1  UNL1        0.0017
     31 C         143.8119  137.6024  155.3899 C.3     1  UNL1        0.0196
@<TRIPOS>BOND
     1    30    31    1
     2    31    18    1
     3    18    19    1
     4    19    20   am
     5    20    21    2
     6    20    23    1
     7    23    24   ar
     8    24    25   ar
     9    25    26   ar
    10    26    27    1
    11    26    28   ar
    12    28    29   ar
    13     1    18    1
    14     1     2    1
    15     2     3    1
    16     3     4    1
    17     4     7    1
    18     7     8   ar
    19     8     9   ar
    20     9    10   ar
    21    10    11   ar
    22    11    12   ar
    23    12    16    1
    24    16    17    3
    25    12    13   ar
    26    13    14   ar
    27    14    15   ar
    28     4     5    1
    29     6     5    1
    30    29    23   ar
    31     6     1    1
    32     6     2    1
    33    15     7   ar
    34    15    10   ar
    35    19    22    1
@<TRIPOS>MOLECULE
*****
 31 35 0 0 0
SMALL
GASTEIGER

@<TRIPOS>ATOM
      1 C         142.3341  139.1868  160.6633 C.3     1  UNL1        0.0181
      2 C         141.6630  138.4148  161.7604 C.3     1  UNL1        0.0036
      3 C         140.9330  137.9271  162.9767 C.3     1  UNL1        0.0227
      4 C         140.5115  139.1245  163.7757 C.3     1  UNL1        0.0884
      5 C         140.9809  140.3524  163.0533 C.3     1  UNL1        0.0227
      6 C         141.6926  139.9138  161.8078 C.3     1  UNL1        0.0036
      7 N         139.7536  139.0986  165.0699 N.ar    1  UNL1       -0.2964
      8 C         138.4750  138.3580  165.3282 C.ar    1  UNL1        0.1796
      9 N         138.0725  138.6106  166.7510 N.ar    1  UNL1       -0.2223
     10 C         139.1022  139.5072  167.3719 C.ar    1  UNL1        0.1178
     11 C         139.2280  140.0880  168.7491 C.ar    1  UNL1        0.0341
     12 C         140.3929  140.9705  169.0874 C.ar    1  UNL1        0.0892
     13 C         141.4319  141.2721  168.0484 C.ar    1  UNL1        0.1108
     14 N         141.3060  140.6913  166.6712 N.ar    1  UNL1       -0.2245
     15 C         140.1412  139.8089  166.3329 C.ar    1  UNL1        0.1627
     16 C         140.5187  141.5513  170.4647 C.1     1  UNL1        0.1020
     17 N         140.6445  142.1321  171.8419 N.1     1  UNL1       -0.1908
     18 C         143.0920  139.2127  159.3692 C.3     1  UNL1        0.0718
     19 N         143.1786  137.9752  158.5259 N.am    1  UNL1       -0.3025
     20 C         142.0952  137.6648  157.5360 C.2     1  UNL1        0.2458
     21 O         140.9251  138.5919  157.3894 O.2     1  UNL1       -0.2701
     22 H         143.9466  137.3667  158.6221 H       1  UNL1        0.1497
     23 C         142.1819  136.4273  156.6926 C.ar    1  UNL1        0.0534
     24 C         143.3499  135.4982  156.8420 C.ar    1  UNL1        0.0054
     25 C         143.4366  134.2607  155.9987 C.ar    1  UNL1        0.0115
     26 C         142.3551  133.9524  155.0060 C.ar    1  UNL1        0.0577
     27 CL        142.4418  132.7149  154.1627 Cl      1  UNL1       -0.0822
     28 C         141.1870  134.8815  154.8567 C.ar    1  UNL1        0.0115
     29 C         141.1004  136.1189  155.6999 C.ar    1  UNL1        0.0054
     30 C         142.9375  141.6488  158.4796 C.3     1  UNL1        0.0017
     31 C         143.7633  140.4760  158.9182 C.3     1  UNL1        0.0196
@<TRIPOS>BOND
     1    30    31    1
     2    31    18    1
     3    18    19    1
     4    19    20   am
     5    20    21    2
     6    20    23    1
     7    23    24   ar
     8    24    25   ar
     9    25    26   ar
    10    26    27    1
    11    26    28   ar
    12    28    29   ar
    13     1    18    1
    14     1     2    1
    15     2     3    1
    16     3     4    1
    17     4     7    1
    18     7     8   ar
    19     8     9   ar
    20     9    10   ar
    21    10    11   ar
    22    11    12   ar
    23    12    16    1
    24    16    17    3
    25    12    13   ar
    26    13    14   ar
    27    14    15   ar
    28     4     5    1
    29     6     5    1
    30    29    23   ar
    31     6     1    1
    32     6     2    1
    33    15     7   ar
    34    15    10   ar
    35    19    22    1
@<TRIPOS>MOLECULE
*****
 31 35 0 0 0
SMALL
GASTEIGER

@<TRIPOS>ATOM
      1 C         143.0974  139.4815  159.9230 C.3     1  UNL1        0.0181
      2 C         142.3102  139.6060  161.1939 C.3     1  UNL1        0.0036
      3 C         141.8009  139.6835  162.6026 C.3     1  UNL1        0.0227
      4 C         142.9646  139.4848  163.5279 C.3     1  UNL1        0.0884
      5 C         144.1932  139.2845  162.6911 C.3     1  UNL1        0.0227
      6 C         143.7889  139.3594  161.2486 C.3     1  UNL1        0.0036
      7 N         142.9094  139.4862  165.0269 N.ar    1  UNL1       -0.2964
      8 C         143.4946  138.4426  165.9317 C.ar    1  UNL1        0.1796
      9 N         143.2062  138.8429  167.3482 N.ar    1  UNL1       -0.2223
     10 C         142.4427  140.1337  167.3190 C.ar    1  UNL1        0.1178
     11 C         141.8909  140.9985  168.4133 C.ar    1  UNL1        0.0341
     12 C         141.1556  142.2608  168.0730 C.ar    1  UNL1        0.0892
     13 C         140.9722  142.6584  166.6383 C.ar    1  UNL1        0.1108
     14 N         141.5240  141.7936  165.5440 N.ar    1  UNL1       -0.2245
     15 C         142.2593  140.5313  165.8843 C.ar    1  UNL1        0.1627
     16 C         140.6037  143.1256  169.1674 C.1     1  UNL1        0.1020
     17 N         140.0519  143.9904  170.2617 N.1     1  UNL1       -0.1908
     18 C         143.1526  139.4802  158.4241 C.3     1  UNL1        0.0718
     19 N         143.3393  138.1903  157.6816 N.am    1  UNL1       -0.3025
     20 C         142.1448  137.3786  157.2762 C.2     1  UNL1        0.2458
     21 O         140.7636  137.8569  157.6132 O.2     1  UNL1       -0.2701
     22 H         144.2459  137.8764  157.4604 H       1  UNL1        0.1497
     23 C         142.3316  136.0887  156.5336 C.ar    1  UNL1        0.0534
     24 C         141.3231  135.6602  155.5093 C.ar    1  UNL1        0.0054
     25 C         141.5098  134.3703  154.7668 C.ar    1  UNL1        0.0115
     26 C         142.7050  133.5089  155.0487 C.ar    1  UNL1        0.0577
     27 CL        142.8917  132.2190  154.3062 Cl      1  UNL1       -0.0822
     28 C         143.7135  133.9374  156.0731 C.ar    1  UNL1        0.0115
     29 C         143.5268  135.2273  156.8156 C.ar    1  UNL1        0.0054
     30 C         141.6773  141.2137  157.1718 C.3     1  UNL1        0.0017
     31 C         143.0212  140.7688  157.6675 C.3     1  UNL1        0.0196
@<TRIPOS>BOND
     1    30    31    1
     2    31    18    1
     3    18    19    1
     4    19    20   am
     5    20    21    2
     6    20    23    1
     7    23    24   ar
     8    24    25   ar
     9    25    26   ar
    10    26    27    1
    11    26    28   ar
    12    28    29   ar
    13     1    18    1
    14     1     2    1
    15     2     3    1
    16     3     4    1
    17     4     7    1
    18     7     8   ar
    19     8     9   ar
    20     9    10   ar
    21    10    11   ar
    22    11    12   ar
    23    12    16    1
    24    16    17    3
    25    12    13   ar
    26    13    14   ar
    27    14    15   ar
    28     4     5    1
    29     6     5    1
    30    29    23   ar
    31     6     1    1
    32     6     2    1
    33    15     7   ar
    34    15    10   ar
    35    19    22    1
@<TRIPOS>MOLECULE
*****
 31 35 0 0 0
SMALL
GASTEIGER

@<TRIPOS>ATOM
      1 C         142.7229  138.8404  158.3874 C.3     1  UNL1        0.0181
      2 C         142.7234  140.0557  159.2668 C.3     1  UNL1        0.0036
      3 C         142.8889  141.0891  160.3414 C.3     1  UNL1        0.0227
      4 C         143.6780  140.4738  161.4588 C.3     1  UNL1        0.0884
      5 C         144.0002  139.0600  161.0749 C.3     1  UNL1        0.0227
      6 C         143.4103  138.8016  159.7201 C.3     1  UNL1        0.0036
      7 N         144.0751  141.1529  162.7359 N.ar    1  UNL1       -0.2964
      8 C         145.4289  141.7169  163.0505 C.ar    1  UNL1        0.1796
      9 N         145.3786  142.2998  164.4317 N.ar    1  UNL1       -0.2223
     10 C         143.9937  142.0960  164.9707 C.ar    1  UNL1        0.1178
     11 C         143.3622  142.4643  166.2804 C.ar    1  UNL1        0.0341
     12 C         141.9250  142.1238  166.5421 C.ar    1  UNL1        0.0892
     13 C         141.1194  141.4150  165.4940 C.ar    1  UNL1        0.1108
     14 N         141.7509  141.0467  164.1843 N.ar    1  UNL1       -0.2245
     15 C         143.1881  141.3872  163.9226 C.ar    1  UNL1        0.1627
     16 C         141.2934  142.4921  167.8519 C.1     1  UNL1        0.1020
     17 N         140.6618  142.8605  169.1616 N.1     1  UNL1       -0.1908
     18 C         142.3258  138.1613  157.1103 C.3     1  UNL1        0.0718
     19 N         142.1754  136.6695  157.0695 N.am    1  UNL1       -0.3025
     20 C         143.2393  135.8255  156.4324 C.2     1  UNL1        0.2458
     21 O         144.4536  136.4734  155.8361 O.2     1  UNL1       -0.2701
     22 H         141.3784  136.2442  157.4609 H       1  UNL1        0.1497
     23 C         143.0888  134.3336  156.3916 C.ar    1  UNL1        0.0534
     24 C         141.9864  133.7127  155.5860 C.ar    1  UNL1        0.0054
     25 C         141.8359  132.2209  155.5452 C.ar    1  UNL1        0.0115
     26 C         142.7878  131.3499  156.3101 C.ar    1  UNL1        0.0577
     27 CL        142.6373  129.8580  156.2693 Cl      1  UNL1       -0.0822
     28 C         143.8903  131.9707  157.1157 C.ar    1  UNL1        0.0115
     29 C         144.0408  133.4626  157.1565 C.ar    1  UNL1        0.0054
     30 C         143.1341  139.9147  155.3718 C.3     1  UNL1        0.0017
     31 C         142.0792  138.9741  155.8739 C.3     1  UNL1        0.0196
@<TRIPOS>BOND
     1    30    31    1
     2    31    18    1
     3    18    19    1
     4    19    20   am
     5    20    21    2
     6    20    23    1
     7    23    24   ar
     8    24    25   ar
     9    25    26   ar
    10    26    27    1
    11    26    28   ar
    12    28    29   ar
    13     1    18    1
    14     1     2    1
    15     2     3    1
    16     3     4    1
    17     4     7    1
    18     7     8   ar
    19     8     9   ar
    20     9    10   ar
    21    10    11   ar
    22    11    12   ar
    23    12    16    1
    24    16    17    3
    25    12    13   ar
    26    13    14   ar
    27    14    15   ar
    28     4     5    1
    29     6     5    1
    30    29    23   ar
    31     6     1    1
    32     6     2    1
    33    15     7   ar
    34    15    10   ar
    35    19    22    1
@<TRIPOS>MOLECULE
*****
 31 35 0 0 0
SMALL
GASTEIGER

@<TRIPOS>ATOM
      1 C         140.0539  138.4809  158.3374 C.3     1  UNL1        0.0181
      2 C         140.0475  139.5565  159.3829 C.3     1  UNL1        0.0036
      3 C         139.9418  140.4022  160.6173 C.3     1  UNL1        0.0227
      4 C         139.4657  139.5276  161.7391 C.3     1  UNL1        0.0884
      5 C         139.2771  138.1414  161.1981 C.3     1  UNL1        0.0227
      6 C         139.6366  138.1592  159.7419 C.3     1  UNL1        0.0036
      7 N         139.2211  139.9628  163.1536 N.ar    1  UNL1       -0.2964
      8 C         137.9958  140.6635  163.6611 C.ar    1  UNL1        0.1796
      9 N         138.1763  140.9074  165.1301 N.ar    1  UNL1       -0.2223
     10 C         139.5133  140.3576  165.5304 C.ar    1  UNL1        0.1178
     11 C         140.2261  140.3131  166.8494 C.ar    1  UNL1        0.0341
     12 C         141.5846  139.6848  166.9469 C.ar    1  UNL1        0.0892
     13 C         142.2304  139.1010  165.7253 C.ar    1  UNL1        0.1108
     14 N         141.5175  139.1455  164.4063 N.ar    1  UNL1       -0.2245
     15 C         140.1590  139.7738  164.3089 C.ar    1  UNL1        0.1627
     16 C         142.2975  139.6403  168.2660 C.1     1  UNL1        0.1020
     17 N         143.0104  139.5957  169.5850 N.1     1  UNL1       -0.1908
     18 C         140.2984  138.0457  156.9230 C.3     1  UNL1        0.0718
     19 N         140.8492  136.6788  156.6435 N.am    1  UNL1       -0.3025
     20 C         142.3284  136.4385  156.7085 C.2     1  UNL1        0.2458
     21 O         143.2568  137.5651  157.0532 O.2     1  UNL1       -0.2701
     22 H         140.2399  135.9393  156.4173 H       1  UNL1        0.1497
     23 C         142.8793  135.0715  156.4290 C.ar    1  UNL1        0.0534
     24 C         143.6587  134.3465  157.4857 C.ar    1  UNL1        0.0054
     25 C         144.2095  132.9795  157.2061 C.ar    1  UNL1        0.0115
     26 C         143.9808  132.3377  155.8699 C.ar    1  UNL1        0.0577
     27 CL        144.5316  130.9708  155.5903 Cl      1  UNL1       -0.0822
     28 C         143.2013  133.0627  154.8131 C.ar    1  UNL1        0.0115
     29 C         142.6505  134.4296  155.0926 C.ar    1  UNL1        0.0054
     30 C         140.9114  140.1246  155.4905 C.3     1  UNL1        0.0017
     31 C         139.9922  138.9774  155.7879 C.3     1  UNL1        0.0196
@<TRIPOS>BOND
     1    30    31    1
     2    31    18    1
     3    18    19    1
     4    19    20   am
     5    20    21    2
     6    20    23    1
     7    23    24   ar
     8    24    25   ar
     9    25    26   ar
    10    26    27    1
    11    26    28   ar
    12    28    29   ar
    13     1    18    1
    14     1     2    1
    15     2     3    1
    16     3     4    1
    17     4     7    1
    18     7     8   ar
    19     8     9   ar
    20     9    10   ar
    21    10    11   ar
    22    11    12   ar
    23    12    16    1
    24    16    17    3
    25    12    13   ar
    26    13    14   ar
    27    14    15   ar
    28     4     5    1
    29     6     5    1
    30    29    23   ar
    31     6     1    1
    32     6     2    1
    33    15     7   ar
    34    15    10   ar
    35    19    22    1
@<TRIPOS>MOLECULE
*****
 31 35 0 0 0
SMALL
GASTEIGER

@<TRIPOS>ATOM
      1 C         142.9909  139.2115  158.1176 C.3     1  UNL1        0.0181
      2 C         142.0143  139.1652  159.2553 C.3     1  UNL1        0.0036
      3 C         141.2632  139.2706  160.5494 C.3     1  UNL1        0.0227
      4 C         142.1375  139.9865  161.5359 C.3     1  UNL1        0.0884
      5 C         143.4290  140.3236  160.8514 C.3     1  UNL1        0.0227
      6 C         143.3528  139.8160  159.4420 C.3     1  UNL1        0.0036
      7 N         141.7827  140.3087  162.9572 N.ar    1  UNL1       -0.2964
      8 C         142.4520  141.3355  163.8220 C.ar    1  UNL1        0.1796
      9 N         141.7792  141.3221  165.1625 N.ar    1  UNL1       -0.2223
     10 C         140.6941  140.2871  165.1263 C.ar    1  UNL1        0.1178
     11 C         139.7044  139.8340  166.1584 C.ar    1  UNL1        0.0341
     12 C         138.7168  138.7547  165.8274 C.ar    1  UNL1        0.0892
     13 C         138.7189  138.1284  164.4644 C.ar    1  UNL1        0.1108
     14 N         139.7087  138.5814  163.4324 N.ar    1  UNL1       -0.2245
     15 C         140.6962  139.6608  163.7633 C.ar    1  UNL1        0.1627
     16 C         137.7270  138.3015  166.8594 C.1     1  UNL1        0.1020
     17 N         136.7372  137.8484  167.8914 N.1     1  UNL1       -0.1908
     18 C         143.3457  138.8893  156.6964 C.3     1  UNL1        0.0718
     19 N         143.6748  137.4787  156.3068 N.am    1  UNL1       -0.3025
     20 C         142.5763  136.4709  156.1403 C.2     1  UNL1        0.2458
     21 O         141.1488  136.8738  156.3633 O.2     1  UNL1       -0.2701
     22 H         144.6118  137.2143  156.1604 H       1  UNL1        0.1497
     23 C         142.9054  135.0602  155.7507 C.ar    1  UNL1        0.0534
     24 C         142.3190  134.4706  154.5024 C.ar    1  UNL1        0.0054
     25 C         142.6481  133.0600  154.1128 C.ar    1  UNL1        0.0115
     26 C         143.5637  132.2389  154.9716 C.ar    1  UNL1        0.0577
     27 CL        143.8928  130.8283  154.5821 Cl      1  UNL1       -0.0822
     28 C         144.1502  132.8285  156.2200 C.ar    1  UNL1        0.0115
     29 C         143.8211  134.2391  156.6096 C.ar    1  UNL1        0.0054
     30 C         142.7415  141.3065  155.9600 C.3     1  UNL1        0.0017
     31 C         143.3715  139.9778  155.6645 C.3     1  UNL1        0.0196
@<TRIPOS>BOND
     1    30    31    1
     2    31    18    1
     3    18    19    1
     4    19    20   am
     5    20    21    2
     6    20    23    1
     7    23    24   ar
     8    24    25   ar
     9    25    26   ar
    10    26    27    1
    11    26    28   ar
    12    28    29   ar
    13     1    18    1
    14     1     2    1
    15     2     3    1
    16     3     4    1
    17     4     7    1
    18     7     8   ar
    19     8     9   ar
    20     9    10   ar
    21    10    11   ar
    22    11    12   ar
    23    12    16    1
    24    16    17    3
    25    12    13   ar
    26    13    14   ar
    27    14    15   ar
    28     4     5    1
    29     6     5    1
    30    29    23   ar
    31     6     1    1
    32     6     2    1
    33    15     7   ar
    34    15    10   ar
    35    19    22    1
