@<TRIPOS>MOLECULE
*****
 31 35 0 0 0
SMALL
GASTEIGER

@<TRIPOS>ATOM
      1 N         142.8569  138.4379  159.7406 N.pl3   1  UNL1       -0.2870
      2 C         143.9574  138.5639  160.7521 C.3     1  UNL1        0.0927
      3 C         143.3524  138.4143  162.1165 C.3     1  UNL1        0.0232
      4 C         141.8779  138.1957  161.9483 C.3     1  UNL1        0.0226
      5 C         140.4280  137.9874  161.6254 C.3     1  UNL1        0.0191
      6 C         139.4343  137.7891  162.7313 C.3     1  UNL1        0.0722
      7 N         139.8905  137.7991  164.1602 N.3     1  UNL1       -0.2704
      8 C         141.3404  138.0074  164.4832 C.3     1  UNL1        0.0722
      9 C         142.3341  138.2057  163.3772 C.3     1  UNL1        0.0191
     10 C         141.5717  138.2103  160.4800 C.3     1  UNL1        0.0927
     11 C         144.4485  139.9489  154.9382 C.3     1  UNL1        0.0744
     12 C         143.7456  139.2188  156.0440 C.ar    1  UNL1        0.1494
     13 N         142.7659  138.0954  155.8755 N.ar    1  UNL1       -0.1917
     14 S         142.3138  137.6661  157.2398 S.2     1  UNL1        0.0491
     15 C         143.0140  138.5242  158.2514 C.ar    1  UNL1        0.1818
     16 N         143.8989  139.4838  157.5124 N.ar    1  UNL1       -0.2078
     17 C         138.8967  137.6008  165.2662 C.3     1  UNL1        0.1063
     18 C         138.1694  138.7798  165.8414 C.3     1  UNL1        0.1483
     19 O         137.3027  138.6080  167.0535 O.3     1  UNL1       -0.3786
     20 H         136.9090  139.4616  167.2930 H       1  UNL1        0.2108
     21 C         138.3089  140.1307  165.2044 C.ar    1  UNL1        0.0015
     22 C         137.5034  140.4721  163.9859 C.ar    1  UNL1       -0.0020
     23 C         137.6428  141.8229  163.3489 C.ar    1  UNL1        0.0060
     24 C         138.5877  142.8324  163.9304 C.ar    1  UNL1        0.0748
     25 C         139.3931  142.4910  165.1489 C.ar    1  UNL1        0.0233
     26 C         139.2537  141.1402  165.7859 C.ar    1  UNL1       -0.0238
     27 C         140.0592  140.7988  167.0044 C.3     1  UNL1        0.0306
     28 C         140.2374  143.6816  165.4950 C.3     1  UNL1        0.2352
     29 O         139.9537  144.7588  164.4904 O.3     1  UNL1       -0.4404
     30 C         138.9342  144.2339  163.5234 C.2     1  UNL1        0.3413
     31 O         138.3616  144.9797  162.3547 O.2     1  UNL1       -0.2449
@<TRIPOS>BOND
     1    11    12    1
     2    12    13   ar
     3    13    14   ar
     4    14    15   ar
     5    15     1    1
     6     1     2    1
     7     2     3    1
     8     3     4    1
     9     4     5    1
    10     5     6    1
    11     6     7    1
    12     7    17    1
    13    17    18    1
    14    18    19    1
    15    18    21    1
    16    21    22   ar
    17    22    23   ar
    18    23    24   ar
    19    24    25   ar
    20    25    26   ar
    21    26    27    1
    22    25    28    1
    23    28    29    1
    24    29    30    1
    25    30    31    2
    26     7     8    1
    27     8     9    1
    28     4    10    1
    29    15    16   ar
    30    16    12   ar
    31    10     1    1
    32     9     4    1
    33    26    21   ar
    34    30    24    1
    35    19    20    1
@<TRIPOS>MOLECULE
*****
 31 35 0 0 0
SMALL
GASTEIGER

@<TRIPOS>ATOM
      1 N         140.2419  144.9447  160.2413 N.pl3   1  UNL1       -0.2870
      2 C         139.9762  145.8962  161.3701 C.3     1  UNL1        0.0927
      3 C         139.5331  145.0943  162.5578 C.3     1  UNL1        0.0232
      4 C         139.5249  143.6471  162.1631 C.3     1  UNL1        0.0226
      5 C         139.5652  142.2470  161.6266 C.3     1  UNL1        0.0191
      6 C         139.1857  141.0946  162.5086 C.3     1  UNL1        0.0722
      7 N         138.7658  141.3425  163.9272 N.3     1  UNL1       -0.2704
      8 C         138.7255  142.7426  164.4637 C.3     1  UNL1        0.0722
      9 C         139.1051  143.8949  163.5817 C.3     1  UNL1        0.0191
     10 C         139.9630  143.5547  160.7314 C.3     1  UNL1        0.0927
     11 C         140.3470  146.8890  155.3333 C.3     1  UNL1        0.0744
     12 C         140.7534  146.2114  156.6083 C.ar    1  UNL1        0.1494
     13 N         142.0824  145.5720  156.8822 N.ar    1  UNL1       -0.1917
     14 S         142.0525  145.0197  158.2765 S.2     1  UNL1        0.0491
     15 C         140.7051  145.3177  158.8643 C.ar    1  UNL1        0.1818
     16 N         139.9022  146.0542  157.8334 N.ar    1  UNL1       -0.2078
     17 C         138.3863  140.1901  164.8093 C.3     1  UNL1        0.1063
     18 C         139.4202  139.5396  165.6798 C.3     1  UNL1        0.1483
     19 O         140.0990  138.2815  165.2258 O.3     1  UNL1       -0.3786
     20 H         140.7343  137.9952  165.9007 H       1  UNL1        0.2108
     21 C         139.7752  140.1474  167.0045 C.ar    1  UNL1        0.0015
     22 C         138.9323  139.8601  168.2115 C.ar    1  UNL1       -0.0020
     23 C         139.2873  140.4678  169.5361 C.ar    1  UNL1        0.0060
     24 C         140.4852  141.3628  169.6537 C.ar    1  UNL1        0.0748
     25 C         141.3282  141.6500  168.4467 C.ar    1  UNL1        0.0233
     26 C         140.9732  141.0423  167.1221 C.ar    1  UNL1       -0.0238
     27 C         141.8161  141.3296  165.9151 C.3     1  UNL1        0.0306
     28 C         142.4414  142.5639  168.8657 C.3     1  UNL1        0.2352
     29 O         142.2865  142.8415  170.3316 O.3     1  UNL1       -0.4404
     30 C         141.0775  142.0991  170.8186 C.2     1  UNL1        0.3413
     31 O         140.5529  142.0940  172.2239 O.2     1  UNL1       -0.2449
@<TRIPOS>BOND
     1    11    12    1
     2    12    13   ar
     3    13    14   ar
     4    14    15   ar
     5    15     1    1
     6     1     2    1
     7     2     3    1
     8     3     4    1
     9     4     5    1
    10     5     6    1
    11     6     7    1
    12     7    17    1
    13    17    18    1
    14    18    19    1
    15    18    21    1
    16    21    22   ar
    17    22    23   ar
    18    23    24   ar
    19    24    25   ar
    20    25    26   ar
    21    26    27    1
    22    25    28    1
    23    28    29    1
    24    29    30    1
    25    30    31    2
    26     7     8    1
    27     8     9    1
    28     4    10    1
    29    15    16   ar
    30    16    12   ar
    31    10     1    1
    32     9     4    1
    33    26    21   ar
    34    30    24    1
    35    19    20    1
@<TRIPOS>MOLECULE
*****
 31 35 0 0 0
SMALL
GASTEIGER

@<TRIPOS>ATOM
      1 N         138.3129  140.0851  159.7114 N.pl3   1  UNL1       -0.2870
      2 C         139.0149  138.7604  159.6590 C.3     1  UNL1        0.0927
      3 C         139.2170  138.2869  161.0679 C.3     1  UNL1        0.0232
      4 C         138.6401  139.3190  161.9911 C.3     1  UNL1        0.0226
      5 C         138.0245  140.4324  162.7856 C.3     1  UNL1        0.0191
      6 C         138.0091  140.3649  164.2840 C.3     1  UNL1        0.0722
      7 N         138.6092  139.1840  164.9878 N.3     1  UNL1       -0.2704
      8 C         139.2248  138.0706  164.1933 C.3     1  UNL1        0.0722
      9 C         139.2402  138.1381  162.6949 C.3     1  UNL1        0.0191
     10 C         138.0813  140.4302  161.1527 C.3     1  UNL1        0.0927
     11 C         136.0294  141.6574  155.2177 C.3     1  UNL1        0.0744
     12 C         136.8633  141.6409  156.4644 C.ar    1  UNL1        0.1494
     13 N         137.7312  142.7596  156.9594 N.ar    1  UNL1       -0.1917
     14 S         138.3799  142.3130  158.2360 S.2     1  UNL1        0.0491
     15 C         137.9129  140.9182  158.5299 C.ar    1  UNL1        0.1818
     16 N         136.9755  140.5028  157.4351 N.ar    1  UNL1       -0.2078
     17 C         138.5938  139.1166  166.4863 C.3     1  UNL1        0.1063
     18 C         139.7345  139.6885  167.2746 C.3     1  UNL1        0.1483
     19 O         139.6262  139.8172  168.7651 O.3     1  UNL1       -0.3786
     20 H         140.4441  140.2023  169.1167 H       1  UNL1        0.2108
     21 C         140.9838  140.1318  166.5723 C.ar    1  UNL1        0.0015
     22 C         142.0741  139.1424  166.2854 C.ar    1  UNL1       -0.0020
     23 C         143.3232  139.5856  165.5832 C.ar    1  UNL1        0.0060
     24 C         143.4821  141.0182  165.1680 C.ar    1  UNL1        0.0748
     25 C         142.3918  142.0075  165.4549 C.ar    1  UNL1        0.0233
     26 C         141.1426  141.5644  166.1571 C.ar    1  UNL1       -0.0238
     27 C         140.0523  142.5537  166.4441 C.3     1  UNL1        0.0306
     28 C         142.8280  143.3433  164.9300 C.3     1  UNL1        0.2352
     29 O         144.1879  143.1794  164.3186 O.3     1  UNL1       -0.4404
     30 C         144.5922  141.7425  164.4657 C.2     1  UNL1        0.3413
     31 O         145.8803  141.1361  163.9934 O.2     1  UNL1       -0.2449
@<TRIPOS>BOND
     1    11    12    1
     2    12    13   ar
     3    13    14   ar
     4    14    15   ar
     5    15     1    1
     6     1     2    1
     7     2     3    1
     8     3     4    1
     9     4     5    1
    10     5     6    1
    11     6     7    1
    12     7    17    1
    13    17    18    1
    14    18    19    1
    15    18    21    1
    16    21    22   ar
    17    22    23   ar
    18    23    24   ar
    19    24    25   ar
    20    25    26   ar
    21    26    27    1
    22    25    28    1
    23    28    29    1
    24    29    30    1
    25    30    31    2
    26     7     8    1
    27     8     9    1
    28     4    10    1
    29    15    16   ar
    30    16    12   ar
    31    10     1    1
    32     9     4    1
    33    26    21   ar
    34    30    24    1
    35    19    20    1
@<TRIPOS>MOLECULE
*****
 31 35 0 0 0
SMALL
GASTEIGER

@<TRIPOS>ATOM
      1 N         142.8995  138.4393  159.4429 N.pl3   1  UNL1       -0.2870
      2 C         142.8853  137.4405  160.5620 C.3     1  UNL1        0.0927
      3 C         143.4420  138.1068  161.7851 C.3     1  UNL1        0.0232
      4 C         143.8003  139.5175  161.4221 C.3     1  UNL1        0.0226
      5 C         144.1076  140.8950  160.9142 C.3     1  UNL1        0.0191
      6 C         144.6976  141.9201  161.8367 C.3     1  UNL1        0.0722
      7 N         144.9803  141.5677  163.2671 N.3     1  UNL1       -0.2704
      8 C         144.6730  140.1902  163.7749 C.3     1  UNL1        0.0722
      9 C         144.0830  139.1651  162.8524 C.3     1  UNL1        0.0191
     10 C         143.4651  139.7230  159.9745 C.3     1  UNL1        0.0927
     11 C         142.8730  137.3950  154.2672 C.3     1  UNL1        0.0744
     12 C         142.4184  137.7170  155.6598 C.ar    1  UNL1        0.1494
     13 N         140.9995  137.9314  156.0967 N.ar    1  UNL1       -0.1917
     14 S         141.0071  138.2281  157.5671 S.2     1  UNL1        0.0491
     15 C         142.4306  138.1970  158.0389 C.ar    1  UNL1        0.1818
     16 N         143.3028  137.8812  156.8602 N.ar    1  UNL1       -0.2078
     17 C         145.5703  142.5929  164.1896 C.3     1  UNL1        0.1063
     18 C         144.6710  143.4829  164.9952 C.3     1  UNL1        0.1483
     19 O         145.1951  144.1635  166.2249 O.3     1  UNL1       -0.3786
     20 H         144.4905  144.6972  166.6243 H       1  UNL1        0.2108
     21 C         143.2475  143.6924  164.5712 C.ar    1  UNL1        0.0015
     22 C         142.9214  144.7037  163.5124 C.ar    1  UNL1       -0.0020
     23 C         141.4980  144.9132  163.0883 C.ar    1  UNL1        0.0060
     24 C         140.4006  144.1114  163.7231 C.ar    1  UNL1        0.0748
     25 C         140.7267  143.1002  164.7818 C.ar    1  UNL1        0.0233
     26 C         142.1501  142.8906  165.2059 C.ar    1  UNL1       -0.0238
     27 C         142.4762  141.8794  166.2647 C.3     1  UNL1        0.0306
     28 C         139.4432  142.4625  165.2247 C.3     1  UNL1        0.2352
     29 O         138.3239  143.0796  164.4396 O.3     1  UNL1       -0.4404
     30 C         138.9156  144.0987  163.5116 C.2     1  UNL1        0.3413
     31 O         138.1558  144.9549  162.5422 O.2     1  UNL1       -0.2449
@<TRIPOS>BOND
     1    11    12    1
     2    12    13   ar
     3    13    14   ar
     4    14    15   ar
     5    15     1    1
     6     1     2    1
     7     2     3    1
     8     3     4    1
     9     4     5    1
    10     5     6    1
    11     6     7    1
    12     7    17    1
    13    17    18    1
    14    18    19    1
    15    18    21    1
    16    21    22   ar
    17    22    23   ar
    18    23    24   ar
    19    24    25   ar
    20    25    26   ar
    21    26    27    1
    22    25    28    1
    23    28    29    1
    24    29    30    1
    25    30    31    2
    26     7     8    1
    27     8     9    1
    28     4    10    1
    29    15    16   ar
    30    16    12   ar
    31    10     1    1
    32     9     4    1
    33    26    21   ar
    34    30    24    1
    35    19    20    1
@<TRIPOS>MOLECULE
*****
 31 35 0 0 0
SMALL
GASTEIGER

@<TRIPOS>ATOM
      1 N         139.3957  138.8628  159.0758 N.pl3   1  UNL1       -0.2870
      2 C         138.6014  140.1347  159.1125 C.3     1  UNL1        0.0927
      3 C         138.2303  140.4084  160.5399 C.3     1  UNL1        0.0232
      4 C         138.7951  139.3055  161.3854 C.3     1  UNL1        0.0226
      5 C         139.4168  138.1412  162.0980 C.3     1  UNL1        0.0191
      6 C         139.2846  138.0156  163.5868 C.3     1  UNL1        0.0722
      7 N         138.5307  139.0544  164.3631 N.3     1  UNL1       -0.2704
      8 C         137.9090  140.2187  163.6505 C.3     1  UNL1        0.0722
      9 C         138.0412  140.3442  162.1616 C.3     1  UNL1        0.0191
     10 C         139.5154  138.3503  160.4805 C.3     1  UNL1        0.0927
     11 C         139.8248  136.6196  154.3151 C.3     1  UNL1        0.0744
     12 C         140.1667  137.1857  155.6614 C.ar    1  UNL1        0.1494
     13 N         141.5382  137.2596  156.2643 N.ar    1  UNL1       -0.1917
     14 S         141.4163  137.8968  157.6167 S.2     1  UNL1        0.0491
     15 C         139.9695  138.2167  157.8496 C.ar    1  UNL1        0.1818
     16 N         139.1972  137.7772  156.6412 N.ar    1  UNL1       -0.2078
     17 C         138.3985  138.9288  165.8520 C.3     1  UNL1        0.1063
     18 C         139.4411  139.5250  166.7505 C.3     1  UNL1        0.1483
     19 O         139.1869  139.6348  168.2247 O.3     1  UNL1       -0.3786
     20 H         139.9556  140.0396  168.6561 H       1  UNL1        0.2108
     21 C         140.7380  140.0116  166.1747 C.ar    1  UNL1        0.0015
     22 C         141.8787  139.0565  165.9831 C.ar    1  UNL1       -0.0020
     23 C         143.1755  139.5430  165.4074 C.ar    1  UNL1        0.0060
     24 C         143.3317  140.9845  165.0233 C.ar    1  UNL1        0.0748
     25 C         142.1910  141.9396  165.2150 C.ar    1  UNL1        0.0233
     26 C         140.8942  141.4531  165.7907 C.ar    1  UNL1       -0.0238
     27 C         139.7535  142.4082  165.9824 C.3     1  UNL1        0.0306
     28 C         142.6365  143.2934  164.7473 C.3     1  UNL1        0.2352
     29 O         144.0524  143.1751  164.2665 O.3     1  UNL1       -0.4404
     30 C         144.4821  141.7481  164.4371 C.2     1  UNL1        0.3413
     31 O         145.8261  141.1838  164.0836 O.2     1  UNL1       -0.2449
@<TRIPOS>BOND
     1    11    12    1
     2    12    13   ar
     3    13    14   ar
     4    14    15   ar
     5    15     1    1
     6     1     2    1
     7     2     3    1
     8     3     4    1
     9     4     5    1
    10     5     6    1
    11     6     7    1
    12     7    17    1
    13    17    18    1
    14    18    19    1
    15    18    21    1
    16    21    22   ar
    17    22    23   ar
    18    23    24   ar
    19    24    25   ar
    20    25    26   ar
    21    26    27    1
    22    25    28    1
    23    28    29    1
    24    29    30    1
    25    30    31    2
    26     7     8    1
    27     8     9    1
    28     4    10    1
    29    15    16   ar
    30    16    12   ar
    31    10     1    1
    32     9     4    1
    33    26    21   ar
    34    30    24    1
    35    19    20    1
@<TRIPOS>MOLECULE
*****
 31 35 0 0 0
SMALL
GASTEIGER

@<TRIPOS>ATOM
      1 N         142.9466  138.2361  159.8001 N.pl3   1  UNL1       -0.2870
      2 C         144.0525  139.2319  159.9889 C.3     1  UNL1        0.0927
      3 C         144.0684  139.6387  161.4326 C.3     1  UNL1        0.0232
      4 C         142.9723  138.8944  162.1361 C.3     1  UNL1        0.0226
      5 C         141.8434  138.0843  162.7009 C.3     1  UNL1        0.0191
      6 C         141.5009  138.1885  164.1575 C.3     1  UNL1        0.0722
      7 N         142.2873  139.1030  165.0493 N.3     1  UNL1       -0.2704
      8 C         143.4162  139.9131  164.4846 C.3     1  UNL1        0.0722
      9 C         143.7588  139.8089  163.0279 C.3     1  UNL1        0.0191
     10 C         142.2790  138.0276  161.1272 C.3     1  UNL1        0.0927
     11 C         142.8954  134.9075  155.7017 C.3     1  UNL1        0.0744
     12 C         142.5502  136.0365  156.6269 C.ar    1  UNL1        0.1494
     13 N         141.4496  137.0358  156.4262 N.ar    1  UNL1       -0.1917
     14 S         141.4642  137.9814  157.5905 S.2     1  UNL1        0.0491
     15 C         142.5737  137.5666  158.5107 C.ar    1  UNL1        0.1818
     16 N         143.2449  136.3646  157.9152 N.ar    1  UNL1       -0.2078
     17 C         141.9447  139.2072  166.5060 C.3     1  UNL1        0.1063
     18 C         140.8599  140.1401  166.9565 C.3     1  UNL1        0.1483
     19 O         140.3611  140.0835  168.3700 O.3     1  UNL1       -0.3786
     20 H         139.6655  140.7480  168.4942 H       1  UNL1        0.2108
     21 C         140.2738  141.1296  165.9934 C.ar    1  UNL1        0.0015
     22 C         140.9151  142.4740  165.8163 C.ar    1  UNL1       -0.0020
     23 C         140.3291  143.4635  164.8533 C.ar    1  UNL1        0.0060
     24 C         139.1018  143.1086  164.0674 C.ar    1  UNL1        0.0748
     25 C         138.4605  141.7642  164.2444 C.ar    1  UNL1        0.0233
     26 C         139.0465  140.7747  165.2074 C.ar    1  UNL1       -0.0238
     27 C         138.4052  139.4303  165.3845 C.3     1  UNL1        0.0306
     28 C         137.2667  141.6972  163.3388 C.3     1  UNL1        0.2352
     29 O         137.1701  143.0002  162.6020 O.3     1  UNL1       -0.4404
     30 C         138.3043  143.8725  163.0523 C.2     1  UNL1        0.3413
     31 O         138.5907  145.2643  162.5718 O.2     1  UNL1       -0.2449
@<TRIPOS>BOND
     1    11    12    1
     2    12    13   ar
     3    13    14   ar
     4    14    15   ar
     5    15     1    1
     6     1     2    1
     7     2     3    1
     8     3     4    1
     9     4     5    1
    10     5     6    1
    11     6     7    1
    12     7    17    1
    13    17    18    1
    14    18    19    1
    15    18    21    1
    16    21    22   ar
    17    22    23   ar
    18    23    24   ar
    19    24    25   ar
    20    25    26   ar
    21    26    27    1
    22    25    28    1
    23    28    29    1
    24    29    30    1
    25    30    31    2
    26     7     8    1
    27     8     9    1
    28     4    10    1
    29    15    16   ar
    30    16    12   ar
    31    10     1    1
    32     9     4    1
    33    26    21   ar
    34    30    24    1
    35    19    20    1
@<TRIPOS>MOLECULE
*****
 31 35 0 0 0
SMALL
GASTEIGER

@<TRIPOS>ATOM
      1 N         140.8349  141.1189  168.4484 N.pl3   1  UNL1       -0.2870
      2 C         139.6860  140.3030  168.9626 C.3     1  UNL1        0.0927
      3 C         139.0081  139.6642  167.7869 C.3     1  UNL1        0.0232
      4 C         139.7381  140.0852  166.5458 C.3     1  UNL1        0.0226
      5 C         140.5633  140.5885  165.3988 C.3     1  UNL1        0.0191
      6 C         140.2238  140.1819  163.9955 C.3     1  UNL1        0.0722
      7 N         139.0591  139.2721  163.7392 N.3     1  UNL1       -0.2704
      8 C         138.2339  138.7689  164.8862 C.3     1  UNL1        0.0722
      9 C         138.5733  139.1754  166.2895 C.3     1  UNL1        0.0191
     10 C         140.8671  140.9842  166.9547 C.3     1  UNL1        0.0927
     11 C         145.2707  143.2351  170.3786 C.3     1  UNL1        0.0744
     12 C         143.8237  142.9000  170.1686 C.ar    1  UNL1        0.1494
     13 N         142.6695  143.4427  170.9581 N.ar    1  UNL1       -0.1917
     14 S         141.4094  142.8415  170.4097 S.2     1  UNL1        0.0491
     15 C         141.7849  141.9273  169.2814 C.ar    1  UNL1        0.1818
     16 N         143.2770  141.9634  169.1324 N.ar    1  UNL1       -0.2078
     17 C         138.7197  138.8655  162.3358 C.3     1  UNL1        0.1063
     18 C         138.0956  139.8560  161.3981 C.3     1  UNL1        0.1483
     19 O         136.7561  139.5693  160.7869 O.3     1  UNL1       -0.3786
     20 H         136.4995  140.3058  160.2102 H       1  UNL1        0.2108
     21 C         138.8110  141.1334  161.0716 C.ar    1  UNL1        0.0015
     22 C         139.8181  141.1661  159.9604 C.ar    1  UNL1       -0.0020
     23 C         140.5334  142.4434  159.6339 C.ar    1  UNL1        0.0060
     24 C         140.2417  143.6880  160.4185 C.ar    1  UNL1        0.0748
     25 C         139.2346  143.6554  161.5297 C.ar    1  UNL1        0.0233
     26 C         138.5192  142.3781  161.8562 C.ar    1  UNL1       -0.0238
     27 C         137.5121  142.3454  162.9674 C.3     1  UNL1        0.0306
     28 C         139.1561  145.0301  162.1246 C.3     1  UNL1        0.2352
     29 O         140.1146  145.9124  161.3811 O.3     1  UNL1       -0.4404
     30 C         140.7855  145.0830  160.3267 C.2     1  UNL1        0.3413
     31 O         141.8189  145.5640  159.3517 O.2     1  UNL1       -0.2449
@<TRIPOS>BOND
     1    11    12    1
     2    12    13   ar
     3    13    14   ar
     4    14    15   ar
     5    15     1    1
     6     1     2    1
     7     2     3    1
     8     3     4    1
     9     4     5    1
    10     5     6    1
    11     6     7    1
    12     7    17    1
    13    17    18    1
    14    18    19    1
    15    18    21    1
    16    21    22   ar
    17    22    23   ar
    18    23    24   ar
    19    24    25   ar
    20    25    26   ar
    21    26    27    1
    22    25    28    1
    23    28    29    1
    24    29    30    1
    25    30    31    2
    26     7     8    1
    27     8     9    1
    28     4    10    1
    29    15    16   ar
    30    16    12   ar
    31    10     1    1
    32     9     4    1
    33    26    21   ar
    34    30    24    1
    35    19    20    1
@<TRIPOS>MOLECULE
*****
 31 35 0 0 0
SMALL
GASTEIGER

@<TRIPOS>ATOM
      1 N         139.6725  138.7794  159.0740 N.pl3   1  UNL1       -0.2870
      2 C         138.7672  139.9713  158.9736 C.3     1  UNL1        0.0927
      3 C         138.2844  140.3042  160.3542 C.3     1  UNL1        0.0232
      4 C         138.8912  139.3181  161.3079 C.3     1  UNL1        0.0226
      5 C         139.5683  138.2673  162.1370 C.3     1  UNL1        0.0191
      6 C         139.3548  138.2301  163.6212 C.3     1  UNL1        0.0722
      7 N         138.4640  139.2437  164.2764 N.3     1  UNL1       -0.2704
      8 C         137.7869  140.2944  163.4474 C.3     1  UNL1        0.0722
      9 C         138.0005  140.3316  161.9631 C.3     1  UNL1        0.0191
     10 C         139.7491  138.3757  160.5167 C.3     1  UNL1        0.0927
     11 C         143.4408  136.6212  156.0704 C.3     1  UNL1        0.0744
     12 C         142.1094  137.1169  156.5517 C.ar    1  UNL1        0.1494
     13 N         140.8145  137.0376  155.7988 N.ar    1  UNL1       -0.1917
     14 S         139.7440  137.6507  156.6521 S.2     1  UNL1        0.0491
     15 C         140.3773  138.1090  157.9322 C.ar    1  UNL1        0.1818
     16 N         141.8392  137.7791  157.8702 N.ar    1  UNL1       -0.2078
     17 C         138.2505  139.2064  165.7607 C.3     1  UNL1        0.1063
     18 C         139.2202  139.8940  166.6754 C.3     1  UNL1        0.1483
     19 O         139.2175  139.5820  168.1426 O.3     1  UNL1       -0.3786
     20 H         139.9006  140.1087  168.5864 H       1  UNL1        0.2108
     21 C         140.1927  140.8936  166.1229 C.ar    1  UNL1        0.0015
     22 C         139.7516  142.3029  165.8600 C.ar    1  UNL1       -0.0020
     23 C         140.7240  143.3025  165.3076 C.ar    1  UNL1        0.0060
     24 C         142.1376  142.8927  165.0181 C.ar    1  UNL1        0.0748
     25 C         142.5787  141.4834  165.2810 C.ar    1  UNL1        0.0233
     26 C         141.6063  140.4838  165.8334 C.ar    1  UNL1       -0.0238
     27 C         142.0474  139.0745  166.0963 C.3     1  UNL1        0.0306
     28 C         144.0252  141.3717  164.8999 C.3     1  UNL1        0.2352
     29 O         144.4781  142.7121  164.4015 O.3     1  UNL1       -0.4404
     30 C         143.3114  143.6521  164.4745 C.2     1  UNL1        0.3413
     31 O         143.3175  145.0977  164.0743 O.2     1  UNL1       -0.2449
@<TRIPOS>BOND
     1    11    12    1
     2    12    13   ar
     3    13    14   ar
     4    14    15   ar
     5    15     1    1
     6     1     2    1
     7     2     3    1
     8     3     4    1
     9     4     5    1
    10     5     6    1
    11     6     7    1
    12     7    17    1
    13    17    18    1
    14    18    19    1
    15    18    21    1
    16    21    22   ar
    17    22    23   ar
    18    23    24   ar
    19    24    25   ar
    20    25    26   ar
    21    26    27    1
    22    25    28    1
    23    28    29    1
    24    29    30    1
    25    30    31    2
    26     7     8    1
    27     8     9    1
    28     4    10    1
    29    15    16   ar
    30    16    12   ar
    31    10     1    1
    32     9     4    1
    33    26    21   ar
    34    30    24    1
    35    19    20    1
@<TRIPOS>MOLECULE
*****
 31 35 0 0 0
SMALL
GASTEIGER

@<TRIPOS>ATOM
      1 N         140.5521  139.9590  167.1964 N.pl3   1  UNL1       -0.2870
      2 C         139.0962  139.6052  167.2689 C.3     1  UNL1        0.0927
      3 C         138.6589  139.1597  165.9049 C.3     1  UNL1        0.0232
      4 C         139.8446  139.2381  164.9894 C.3     1  UNL1        0.0226
      5 C         141.1120  139.3677  164.1977 C.3     1  UNL1        0.0191
      6 C         141.1253  139.0143  162.7401 C.3     1  UNL1        0.0722
      7 N         139.8711  138.5311  162.0740 N.3     1  UNL1       -0.2704
      8 C         138.6036  138.4015  162.8657 C.3     1  UNL1        0.0722
      9 C         138.5904  138.7550  164.3233 C.3     1  UNL1        0.0191
     10 C         141.0146  139.7321  165.7875 C.3     1  UNL1        0.0927
     11 C         144.2421  142.5299  169.9629 C.3     1  UNL1        0.0744
     12 C         143.0932  141.6346  169.6046 C.ar    1  UNL1        0.1494
     13 N         142.3016  140.7912  170.5596 N.ar    1  UNL1       -0.1917
     14 S         141.2533  140.0609  169.7737 S.2     1  UNL1        0.0491
     15 C         141.3971  140.4529  168.3330 C.ar    1  UNL1        0.1818
     16 N         142.5342  141.4255  168.2285 N.ar    1  UNL1       -0.2078
     17 C         139.8844  138.1777  160.6163 C.3     1  UNL1        0.1063
     18 C         139.5422  139.2163  159.5896 C.3     1  UNL1        0.1483
     19 O         139.1145  138.7985  158.2139 O.3     1  UNL1       -0.3786
     20 H         138.9320  139.5867  157.6788 H       1  UNL1        0.2108
     21 C         139.6278  140.6726  159.9385 C.ar    1  UNL1        0.0015
     22 C         138.4418  141.3722  160.5336 C.ar    1  UNL1       -0.0020
     23 C         138.5273  142.8285  160.8825 C.ar    1  UNL1        0.0060
     24 C         139.7988  143.5852  160.6364 C.ar    1  UNL1        0.0748
     25 C         140.9848  142.8857  160.0414 C.ar    1  UNL1        0.0233
     26 C         140.8993  141.4294  159.6924 C.ar    1  UNL1       -0.0238
     27 C         142.0852  140.7298  159.0974 C.3     1  UNL1        0.0306
     28 C         142.0964  143.8848  159.9140 C.3     1  UNL1        0.2352
     29 O         141.5975  145.2018  160.4303 O.3     1  UNL1       -0.4404
     30 C         140.1775  145.0166  160.8768 C.2     1  UNL1        0.3413
     31 O         139.2916  146.0768  161.4611 O.2     1  UNL1       -0.2449
@<TRIPOS>BOND
     1    11    12    1
     2    12    13   ar
     3    13    14   ar
     4    14    15   ar
     5    15     1    1
     6     1     2    1
     7     2     3    1
     8     3     4    1
     9     4     5    1
    10     5     6    1
    11     6     7    1
    12     7    17    1
    13    17    18    1
    14    18    19    1
    15    18    21    1
    16    21    22   ar
    17    22    23   ar
    18    23    24   ar
    19    24    25   ar
    20    25    26   ar
    21    26    27    1
    22    25    28    1
    23    28    29    1
    24    29    30    1
    25    30    31    2
    26     7     8    1
    27     8     9    1
    28     4    10    1
    29    15    16   ar
    30    16    12   ar
    31    10     1    1
    32     9     4    1
    33    26    21   ar
    34    30    24    1
    35    19    20    1
