@<TRIPOS>MOLECULE
*****
 42 47 0 0 0
SMALL
GASTEIGER

@<TRIPOS>ATOM
      1 N         142.0656  138.1038  158.7716 N.am    1  UNL1       -0.2222
      2 C         142.5061  138.1049  160.2055 C.2     1  UNL1        0.3219
      3 O         143.8085  137.5752  160.7282 O.2     1  UNL1       -0.2512
      4 N         141.4154  138.7286  161.0250 N.am    1  UNL1       -0.1907
      5 C         140.3009  139.1130  160.0976 C.2     1  UNL1        0.2529
      6 O         139.0111  139.7685  160.4933 O.2     1  UNL1       -0.2724
      7 C         140.7027  138.7269  158.7049 C.3     1  UNL1        0.1391
      8 C         141.2385  138.2875  157.3745 C.3     1  UNL1        0.0449
      9 C         140.4210  138.4890  156.1332 C.3     1  UNL1        0.0746
     10 N         139.0677  139.1300  156.2222 N.3     1  UNL1       -0.2676
     11 C         138.5320  139.5694  157.5525 C.3     1  UNL1        0.0746
     12 C         139.3495  139.3678  158.7939 C.3     1  UNL1        0.0449
     13 C         143.6361  135.5713  156.1506 C.ar    1  UNL1        0.2293
     14 C         142.8515  136.1022  157.3136 C.ar    1  UNL1        0.0924
     15 C         142.8502  137.5729  157.6086 C.ar    1  UNL1        0.1453
     16 N         143.6335  138.5127  156.7407 N.ar    1  UNL1       -0.2084
     17 C         144.4181  137.9819  155.5778 C.ar    1  UNL1        0.2027
     18 N         144.4194  136.5111  155.2827 N.ar    1  UNL1       -0.1892
     19 C         142.8677  133.1589  156.7333 C.3     1  UNL1        0.2542
     20 O         143.6375  134.1007  155.8555 O.3     1  UNL1       -0.4560
     21 C         141.4357  138.9322  162.5109 C.ar    1  UNL1        0.0622
     22 C         141.4082  140.3205  163.0782 C.ar    1  UNL1        0.0154
     23 C         141.4285  140.5240  164.5642 C.ar    1  UNL1        0.0013
     24 C         141.4763  139.3393  165.4829 C.ar    1  UNL1        0.0006
     25 C         141.5039  137.9509  164.9157 C.ar    1  UNL1        0.0013
     26 C         141.4836  137.7474  163.4296 C.ar    1  UNL1        0.0154
     27 C         141.4967  139.5428  166.9689 C.ar    1  UNL1        0.0070
     28 C         142.7027  139.4464  167.8556 C.ar    1  UNL1        0.0355
     29 S         142.2660  139.7225  169.2638 S.2     1  UNL1       -0.0853
     30 C         140.7900  139.9896  169.2474 C.ar    1  UNL1        0.0434
     31 C         140.3146  139.8785  167.8291 C.ar    1  UNL1        0.0081
     32 C         139.9389  140.3112  170.4399 C.2     1  UNL1        0.0789
     33 O         138.4866  139.9361  170.4480 O.co2   1  UNL1       -0.5441
     34 O         140.5400  141.0081  171.6244 O.co2   1  UNL1       -0.5441
     35 C         138.2502  139.3315  154.9807 C.3     1  UNL1        0.1183
     36 C         136.8828  139.9410  155.0739 C.ar    1  UNL1        0.0712
     37 N         135.6804  139.0620  155.2517 N.ar    1  UNL1       -0.2471
     38 C         134.3130  139.6716  155.3448 C.ar    1  UNL1        0.0985
     39 C         134.1480  141.1600  155.2602 C.ar    1  UNL1        0.0203
     40 C         135.3504  142.0390  155.0824 C.ar    1  UNL1       -0.0015
     41 C         136.7177  141.4295  154.9892 C.ar    1  UNL1       -0.0069
     42 C         137.9201  142.3085  154.8114 C.3     1  UNL1        0.0323
@<TRIPOS>UNITY_ATOM_ATTR
33 1
charge -1
@<TRIPOS>BOND
     1    19    20    1
     2    20    13    1
     3    13    14   ar
     4    14    15   ar
     5    15     1    1
     6     1     2   am
     7     2     3    2
     8     2     4   am
     9     4    21    1
    10    21    22   ar
    11    22    23   ar
    12    23    24   ar
    13    24    27    1
    14    27    28   ar
    15    28    29   ar
    16    29    30   ar
    17    30    32    1
    18    32    33   ar
    19    32    34   ar
    20    30    31   ar
    21    24    25   ar
    22    25    26   ar
    23     4     5   am
    24     5     6    2
    25     5     7    1
    26     7     8    1
    27     8     9    1
    28     9    10    1
    29    10    35    1
    30    35    36    1
    31    36    37   ar
    32    37    38   ar
    33    38    39   ar
    34    39    40   ar
    35    40    41   ar
    36    41    42    1
    37    10    11    1
    38    11    12    1
    39    15    16   ar
    40    16    17   ar
    41    17    18   ar
    42    18    13   ar
    43     7     1    1
    44    41    36   ar
    45    26    21   ar
    46    12     7    1
    47    31    27   ar
@<TRIPOS>MOLECULE
*****
 42 47 0 0 0
SMALL
GASTEIGER

@<TRIPOS>ATOM
      1 N         139.1594  142.2353  158.9421 N.am    1  UNL1       -0.2222
      2 C         139.2942  141.7156  160.3428 C.2     1  UNL1        0.3219
      3 O         138.8715  140.3595  160.8247 O.2     1  UNL1       -0.2512
      4 N         139.9260  142.7904  161.1770 N.am    1  UNL1       -0.1907
      5 C         140.1816  143.9741  160.2920 C.2     1  UNL1        0.2529
      6 O         140.8021  145.2729  160.7139 O.2     1  UNL1       -0.2724
      7 C         139.7078  143.6311  158.9106 C.3     1  UNL1        0.1391
      8 C         139.1924  143.1481  157.5874 C.3     1  UNL1        0.0449
      9 C         139.2559  144.0436  156.3857 C.3     1  UNL1        0.0746
     10 N         139.8348  145.4221  156.5073 N.3     1  UNL1       -0.2676
     11 C         140.3502  145.9050  157.8306 C.3     1  UNL1        0.0746
     12 C         140.2867  145.0095  159.0323 C.3     1  UNL1        0.0449
     13 C         136.5360  140.8692  156.2961 C.ar    1  UNL1        0.2293
     14 C         137.1172  141.6145  157.4608 C.ar    1  UNL1        0.0924
     15 C         138.5781  141.4899  157.7774 C.ar    1  UNL1        0.1453
     16 N         139.4578  140.6199  156.9292 N.ar    1  UNL1       -0.2084
     17 C         138.8766  139.8746  155.7645 C.ar    1  UNL1        0.2027
     18 N         137.4156  139.9992  155.4479 N.ar    1  UNL1       -0.1892
     19 C         134.0887  140.0549  156.6085 C.3     1  UNL1        0.2542
     20 O         135.0751  140.9938  155.9795 O.3     1  UNL1       -0.4560
     21 C         140.2460  142.6976  162.6395 C.ar    1  UNL1        0.0622
     22 C         141.4362  141.9083  163.0982 C.ar    1  UNL1        0.0154
     23 C         141.7562  141.8156  164.5608 C.ar    1  UNL1        0.0013
     24 C         140.8860  142.5120  165.5646 C.ar    1  UNL1        0.0006
     25 C         139.6958  143.3014  165.1059 C.ar    1  UNL1        0.0013
     26 C         139.3758  143.3941  163.6433 C.ar    1  UNL1        0.0154
     27 C         141.2060  142.4193  167.0271 C.ar    1  UNL1        0.0070
     28 C         142.5687  142.2154  167.6203 C.ar    1  UNL1        0.0355
     29 S         142.4244  142.1842  169.1130 S.2     1  UNL1       -0.0853
     30 C         140.9727  142.3688  169.4424 C.ar    1  UNL1        0.0434
     31 C         140.2197  142.5140  168.1532 C.ar    1  UNL1        0.0081
     32 C         140.3783  142.4022  170.8191 C.2     1  UNL1        0.0789
     33 O         139.2817  143.3744  171.1393 O.co2   1  UNL1       -0.5441
     34 O         140.8803  141.4634  171.8758 O.co2   1  UNL1       -0.5441
     35 C         139.8982  146.3176  155.3056 C.3     1  UNL1        0.1183
     36 C         139.4780  147.7531  155.4170 C.ar    1  UNL1        0.0712
     37 N         138.7082  148.2183  156.6174 N.ar    1  UNL1       -0.2471
     38 C         138.2880  149.6540  156.7288 C.ar    1  UNL1        0.0985
     39 C         138.6375  150.6244  155.6397 C.ar    1  UNL1        0.0203
     40 C         139.4073  150.1592  154.4393 C.ar    1  UNL1       -0.0015
     41 C         139.8275  148.7236  154.3279 C.ar    1  UNL1       -0.0069
     42 C         140.5973  148.2585  153.1275 C.3     1  UNL1        0.0323
@<TRIPOS>UNITY_ATOM_ATTR
33 1
charge -1
@<TRIPOS>BOND
     1    19    20    1
     2    20    13    1
     3    13    14   ar
     4    14    15   ar
     5    15     1    1
     6     1     2   am
     7     2     3    2
     8     2     4   am
     9     4    21    1
    10    21    22   ar
    11    22    23   ar
    12    23    24   ar
    13    24    27    1
    14    27    28   ar
    15    28    29   ar
    16    29    30   ar
    17    30    32    1
    18    32    33   ar
    19    32    34   ar
    20    30    31   ar
    21    24    25   ar
    22    25    26   ar
    23     4     5   am
    24     5     6    2
    25     5     7    1
    26     7     8    1
    27     8     9    1
    28     9    10    1
    29    10    35    1
    30    35    36    1
    31    36    37   ar
    32    37    38   ar
    33    38    39   ar
    34    39    40   ar
    35    40    41   ar
    36    41    42    1
    37    10    11    1
    38    11    12    1
    39    15    16   ar
    40    16    17   ar
    41    17    18   ar
    42    18    13   ar
    43     7     1    1
    44    41    36   ar
    45    26    21   ar
    46    12     7    1
    47    31    27   ar
@<TRIPOS>MOLECULE
*****
 42 47 0 0 0
SMALL
GASTEIGER

@<TRIPOS>ATOM
      1 N         139.1039  142.2568  159.0043 N.am    1  UNL1       -0.2222
      2 C         139.2585  141.7506  160.4079 C.2     1  UNL1        0.3219
      3 O         138.7951  140.4195  160.9212 O.2     1  UNL1       -0.2512
      4 N         139.9579  142.8092  161.2080 N.am    1  UNL1       -0.1907
      5 C         140.2355  143.9697  160.2990 C.2     1  UNL1        0.2529
      6 O         140.9207  145.2472  160.6842 O.2     1  UNL1       -0.2724
      7 C         139.7077  143.6283  158.9370 C.3     1  UNL1        0.1391
      8 C         139.1344  143.1496  157.6362 C.3     1  UNL1        0.0449
      9 C         139.1990  144.0258  156.4205 C.3     1  UNL1        0.0746
     10 N         139.8371  145.3806  156.5055 N.3     1  UNL1       -0.2676
     11 C         140.4104  145.8593  157.8063 C.3     1  UNL1        0.0746
     12 C         140.3457  144.9831  159.0220 C.3     1  UNL1        0.0449
     13 C         138.5929  139.7583  155.9636 C.ar    1  UNL1        0.2293
     14 C         139.2381  140.4943  157.1002 C.ar    1  UNL1        0.0924
     15 C         138.4587  141.5208  157.8676 C.ar    1  UNL1        0.1453
     16 N         137.0341  141.8112  157.4984 N.ar    1  UNL1       -0.2084
     17 C         136.3889  141.0752  156.3618 C.ar    1  UNL1        0.2027
     18 N         137.1683  140.0487  155.5943 N.ar    1  UNL1       -0.1892
     19 C         138.7452  137.4113  154.8598 C.3     1  UNL1        0.2542
     20 O         139.3722  138.7318  155.1961 O.3     1  UNL1       -0.4560
     21 C         140.3167  142.7226  162.6618 C.ar    1  UNL1        0.0622
     22 C         141.3130  141.7034  163.1290 C.ar    1  UNL1        0.0154
     23 C         141.6718  141.6168  164.5829 C.ar    1  UNL1        0.0013
     24 C         141.0342  142.5494  165.5696 C.ar    1  UNL1        0.0006
     25 C         140.0378  143.5688  165.1024 C.ar    1  UNL1        0.0013
     26 C         139.6791  143.6553  163.6485 C.ar    1  UNL1        0.0154
     27 C         141.3930  142.4628  167.0235 C.ar    1  UNL1        0.0070
     28 C         142.7514  142.1534  167.5795 C.ar    1  UNL1        0.0355
     29 S         142.6544  142.1698  169.0763 S.2     1  UNL1       -0.0853
     30 C         141.2360  142.4893  169.4453 C.ar    1  UNL1        0.0434
     31 C         140.4564  142.6704  168.1766 C.ar    1  UNL1        0.0081
     32 C         140.6925  142.6071  170.8384 C.2     1  UNL1        0.0789
     33 O         141.4798  142.0731  171.9982 O.co2   1  UNL1       -0.5441
     34 O         139.3619  143.2588  171.0718 O.co2   1  UNL1       -0.5441
     35 C         139.9017  146.2569  155.2897 C.3     1  UNL1        0.1183
     36 C         139.4879  147.6958  155.3794 C.ar    1  UNL1        0.0712
     37 N         138.6923  148.1754  156.5571 N.ar    1  UNL1       -0.2471
     38 C         138.2785  149.6145  156.6467 C.ar    1  UNL1        0.0985
     39 C         138.6603  150.5738  155.5587 C.ar    1  UNL1        0.0203
     40 C         139.4559  150.0942  154.3810 C.ar    1  UNL1       -0.0015
     41 C         139.8697  148.6553  154.2913 C.ar    1  UNL1       -0.0069
     42 C         140.6654  148.1756  153.1136 C.3     1  UNL1        0.0323
@<TRIPOS>UNITY_ATOM_ATTR
33 1
charge -1
@<TRIPOS>BOND
     1    19    20    1
     2    20    13    1
     3    13    14   ar
     4    14    15   ar
     5    15     1    1
     6     1     2   am
     7     2     3    2
     8     2     4   am
     9     4    21    1
    10    21    22   ar
    11    22    23   ar
    12    23    24   ar
    13    24    27    1
    14    27    28   ar
    15    28    29   ar
    16    29    30   ar
    17    30    32    1
    18    32    33   ar
    19    32    34   ar
    20    30    31   ar
    21    24    25   ar
    22    25    26   ar
    23     4     5   am
    24     5     6    2
    25     5     7    1
    26     7     8    1
    27     8     9    1
    28     9    10    1
    29    10    35    1
    30    35    36    1
    31    36    37   ar
    32    37    38   ar
    33    38    39   ar
    34    39    40   ar
    35    40    41   ar
    36    41    42    1
    37    10    11    1
    38    11    12    1
    39    15    16   ar
    40    16    17   ar
    41    17    18   ar
    42    18    13   ar
    43     7     1    1
    44    41    36   ar
    45    26    21   ar
    46    12     7    1
    47    31    27   ar
@<TRIPOS>MOLECULE
*****
 42 47 0 0 0
SMALL
GASTEIGER

@<TRIPOS>ATOM
      1 N         142.4716  138.9274  159.4008 N.am    1  UNL1       -0.2222
      2 C         142.1885  138.6851  160.8539 C.2     1  UNL1        0.3219
      3 O         141.4538  137.5086  161.4247 O.2     1  UNL1       -0.2512
      4 N         142.7691  139.8260  161.6357 N.am    1  UNL1       -0.1907
      5 C         143.4111  140.7734  160.6660 C.2     1  UNL1        0.2529
      6 O         144.1135  142.0516  161.0159 O.2     1  UNL1       -0.2724
      7 C         143.2272  140.2180  159.2847 C.3     1  UNL1        0.1391
      8 C         142.9675  139.5427  157.9707 C.3     1  UNL1        0.0449
      9 C         143.4539  140.1682  156.6971 C.3     1  UNL1        0.0746
     10 N         144.1998  141.4689  156.7374 N.3     1  UNL1       -0.2676
     11 C         144.4595  142.1442  158.0513 C.3     1  UNL1        0.0746
     12 C         143.9732  141.5188  159.3250 C.3     1  UNL1        0.0449
     13 C         140.2729  137.2096  156.5787 C.ar    1  UNL1        0.2293
     14 C         140.6749  138.1013  157.7159 C.ar    1  UNL1        0.0924
     15 C         142.0697  138.0357  158.2636 C.ar    1  UNL1        0.1453
     16 N         143.0627  137.0783  157.6742 N.ar    1  UNL1       -0.2084
     17 C         142.6608  136.1865  156.5370 C.ar    1  UNL1        0.2027
     18 N         141.2659  136.2522  155.9892 N.ar    1  UNL1       -0.1892
     19 C         138.6586  137.4393  154.5561 C.3     1  UNL1        0.2542
     20 O         138.8781  137.2752  156.0309 O.3     1  UNL1       -0.4560
     21 C         142.7170  139.9906  163.1257 C.ar    1  UNL1        0.0622
     22 C         143.5622  139.1191  164.0066 C.ar    1  UNL1        0.0154
     23 C         143.5101  139.2838  165.4966 C.ar    1  UNL1        0.0013
     24 C         142.6126  140.3199  166.1058 C.ar    1  UNL1        0.0006
     25 C         141.7673  141.1914  165.2249 C.ar    1  UNL1        0.0013
     26 C         141.8195  141.0267  163.7348 C.ar    1  UNL1        0.0154
     27 C         142.5604  140.4845  167.5958 C.ar    1  UNL1        0.0070
     28 C         142.6116  139.3780  168.6074 C.ar    1  UNL1        0.0355
     29 S         142.5307  139.9941  169.9726 S.2     1  UNL1       -0.0853
     30 C         142.4296  141.4813  169.8048 C.ar    1  UNL1        0.0434
     31 C         142.4480  141.7843  168.3359 C.ar    1  UNL1        0.0081
     32 C         142.3279  142.4886  170.9116 C.2     1  UNL1        0.0789
     33 O         141.3910  142.2506  172.0586 O.co2   1  UNL1       -0.5441
     34 O         143.1631  143.7339  170.8715 O.co2   1  UNL1       -0.5441
     35 C         144.6862  142.0943  155.4636 C.3     1  UNL1        0.1183
     36 C         146.1331  141.9907  155.0819 C.ar    1  UNL1        0.0712
     37 N         147.1937  142.0421  156.1413 N.ar    1  UNL1       -0.2471
     38 C         148.6407  141.9385  155.7596 C.ar    1  UNL1        0.0985
     39 C         149.0269  141.7835  154.3185 C.ar    1  UNL1        0.0203
     40 C         147.9662  141.7321  153.2591 C.ar    1  UNL1       -0.0015
     41 C         146.5194  141.8357  153.6408 C.ar    1  UNL1       -0.0069
     42 C         145.4587  141.7843  152.5814 C.3     1  UNL1        0.0323
@<TRIPOS>UNITY_ATOM_ATTR
33 1
charge -1
@<TRIPOS>BOND
     1    19    20    1
     2    20    13    1
     3    13    14   ar
     4    14    15   ar
     5    15     1    1
     6     1     2   am
     7     2     3    2
     8     2     4   am
     9     4    21    1
    10    21    22   ar
    11    22    23   ar
    12    23    24   ar
    13    24    27    1
    14    27    28   ar
    15    28    29   ar
    16    29    30   ar
    17    30    32    1
    18    32    33   ar
    19    32    34   ar
    20    30    31   ar
    21    24    25   ar
    22    25    26   ar
    23     4     5   am
    24     5     6    2
    25     5     7    1
    26     7     8    1
    27     8     9    1
    28     9    10    1
    29    10    35    1
    30    35    36    1
    31    36    37   ar
    32    37    38   ar
    33    38    39   ar
    34    39    40   ar
    35    40    41   ar
    36    41    42    1
    37    10    11    1
    38    11    12    1
    39    15    16   ar
    40    16    17   ar
    41    17    18   ar
    42    18    13   ar
    43     7     1    1
    44    41    36   ar
    45    26    21   ar
    46    12     7    1
    47    31    27   ar
@<TRIPOS>MOLECULE
*****
 42 47 0 0 0
SMALL
GASTEIGER

@<TRIPOS>ATOM
      1 N         142.2587  143.3215  161.2527 N.am    1  UNL1       -0.2222
      2 C         142.8342  143.3049  159.8675 C.2     1  UNL1        0.3219
      3 O         142.1421  143.7672  158.6196 O.2     1  UNL1       -0.2512
      4 N         144.2233  142.7449  159.9495 N.am    1  UNL1       -0.1907
      5 C         144.5063  142.4153  161.3852 C.2     1  UNL1        0.2529
      6 O         145.7799  141.8319  161.9214 O.2     1  UNL1       -0.2724
      7 C         143.2921  142.7717  162.1907 C.3     1  UNL1        0.1391
      8 C         142.0122  143.1745  162.8612 C.3     1  UNL1        0.0449
      9 C         141.8585  143.0100  164.3442 C.3     1  UNL1        0.0746
     10 N         142.9846  142.4427  165.1566 N.3     1  UNL1       -0.2676
     11 C         144.2645  142.0399  164.4861 C.3     1  UNL1        0.0746
     12 C         144.4182  142.2044  163.0031 C.3     1  UNL1        0.0449
     13 C         138.3890  143.3088  162.1332 C.ar    1  UNL1        0.2293
     14 C         139.7576  142.8270  161.7528 C.ar    1  UNL1        0.0924
     15 C         140.8900  143.8033  161.6331 C.ar    1  UNL1        0.1453
     16 N         140.6538  145.2615  161.8937 N.ar    1  UNL1       -0.2084
     17 C         139.2853  145.7434  162.2741 C.ar    1  UNL1        0.2027
     18 N         138.1528  144.7669  162.3938 N.ar    1  UNL1       -0.1892
     19 C         137.4266  141.0826  163.0646 C.3     1  UNL1        0.2542
     20 O         137.2566  142.3325  162.2529 O.3     1  UNL1       -0.4560
     21 C         145.1642  142.5488  158.7979 C.ar    1  UNL1        0.0622
     22 C         144.7703  141.6685  157.6491 C.ar    1  UNL1        0.0154
     23 C         145.7112  141.4724  156.4974 C.ar    1  UNL1        0.0013
     24 C         147.0461  142.1566  156.4946 C.ar    1  UNL1        0.0006
     25 C         147.4400  143.0369  157.6435 C.ar    1  UNL1        0.0013
     26 C         146.4991  143.2330  158.7951 C.ar    1  UNL1        0.0154
     27 C         147.9870  141.9605  155.3430 C.ar    1  UNL1        0.0070
     28 C         147.6254  142.0230  153.8885 C.ar    1  UNL1        0.0355
     29 S         148.8696  141.7686  153.0903 S.2     1  UNL1       -0.0853
     30 C         150.0001  141.5489  154.0514 C.ar    1  UNL1        0.0434
     31 C         149.4546  141.6675  155.4436 C.ar    1  UNL1        0.0081
     32 C         151.4258  141.2611  153.6846 C.2     1  UNL1        0.0789
     33 O         152.5344  142.0671  154.2941 O.co2   1  UNL1       -0.5441
     34 O         151.7430  140.1674  152.7084 O.co2   1  UNL1       -0.5441
     35 C         142.8308  142.2782  166.6397 C.3     1  UNL1        0.1183
     36 C         141.6634  141.5158  167.1926 C.ar    1  UNL1        0.0712
     37 N         140.9986  140.4570  166.3638 N.ar    1  UNL1       -0.2471
     38 C         139.8311  139.6946  166.9168 C.ar    1  UNL1        0.0985
     39 C         139.3284  139.9910  168.2986 C.ar    1  UNL1        0.0203
     40 C         139.9932  141.0499  169.1274 C.ar    1  UNL1       -0.0015
     41 C         141.1606  141.8122  168.5745 C.ar    1  UNL1       -0.0069
     42 C         141.8254  142.8711  169.4033 C.3     1  UNL1        0.0323
@<TRIPOS>UNITY_ATOM_ATTR
33 1
charge -1
@<TRIPOS>BOND
     1    19    20    1
     2    20    13    1
     3    13    14   ar
     4    14    15   ar
     5    15     1    1
     6     1     2   am
     7     2     3    2
     8     2     4   am
     9     4    21    1
    10    21    22   ar
    11    22    23   ar
    12    23    24   ar
    13    24    27    1
    14    27    28   ar
    15    28    29   ar
    16    29    30   ar
    17    30    32    1
    18    32    33   ar
    19    32    34   ar
    20    30    31   ar
    21    24    25   ar
    22    25    26   ar
    23     4     5   am
    24     5     6    2
    25     5     7    1
    26     7     8    1
    27     8     9    1
    28     9    10    1
    29    10    35    1
    30    35    36    1
    31    36    37   ar
    32    37    38   ar
    33    38    39   ar
    34    39    40   ar
    35    40    41   ar
    36    41    42    1
    37    10    11    1
    38    11    12    1
    39    15    16   ar
    40    16    17   ar
    41    17    18   ar
    42    18    13   ar
    43     7     1    1
    44    41    36   ar
    45    26    21   ar
    46    12     7    1
    47    31    27   ar
@<TRIPOS>MOLECULE
*****
 42 47 0 0 0
SMALL
GASTEIGER

@<TRIPOS>ATOM
      1 N         140.3303  143.6180  158.9164 N.am    1  UNL1       -0.2222
      2 C         140.9144  143.8868  160.2716 C.2     1  UNL1        0.3219
      3 O         141.9024  144.9641  160.6080 O.2     1  UNL1       -0.2512
      4 N         140.3369  142.8892  161.2315 N.am    1  UNL1       -0.1907
      5 C         139.3959  142.0038  160.4695 C.2     1  UNL1        0.2529
      6 O         138.5989  140.8675  161.0383 O.2     1  UNL1       -0.2724
      7 C         139.3918  142.4542  159.0386 C.3     1  UNL1        0.1391
      8 C         139.4910  143.0147  157.6509 C.3     1  UNL1        0.0449
      9 C         138.6893  142.4079  156.5378 C.3     1  UNL1        0.0746
     10 N         137.7883  141.2406  156.8125 N.3     1  UNL1       -0.2676
     11 C         137.6891  140.6800  158.2003 C.3     1  UNL1        0.0746
     12 C         138.4908  141.2868  159.3133 C.3     1  UNL1        0.0449
     13 C         140.1544  146.3788  156.0709 C.ar    1  UNL1        0.2293
     14 C         139.8530  145.6175  157.3277 C.ar    1  UNL1        0.0924
     15 C         140.6317  144.3792  157.6596 C.ar    1  UNL1        0.1453
     16 N         141.7120  143.9022  156.7346 N.ar    1  UNL1       -0.2084
     17 C         142.0135  144.6634  155.4778 C.ar    1  UNL1        0.2027
     18 N         141.2347  145.9018  155.1460 N.ar    1  UNL1       -0.1892
     19 C         139.6281  148.3382  154.4482 C.3     1  UNL1        0.2542
     20 O         139.3757  147.6171  155.7390 O.3     1  UNL1       -0.4560
     21 C         140.6460  142.7937  162.6961 C.ar    1  UNL1        0.0622
     22 C         142.0493  142.5202  163.1501 C.ar    1  UNL1        0.0154
     23 C         142.3584  142.4248  164.6148 C.ar    1  UNL1        0.0013
     24 C         141.2644  142.6027  165.6255 C.ar    1  UNL1        0.0006
     25 C         139.8611  142.8762  165.1714 C.ar    1  UNL1        0.0013
     26 C         139.5520  142.9716  163.7067 C.ar    1  UNL1        0.0154
     27 C         141.5736  142.5072  167.0902 C.ar    1  UNL1        0.0070
     28 C         142.9103  142.1852  167.6899 C.ar    1  UNL1        0.0355
     29 S         142.7632  142.1959  169.1827 S.2     1  UNL1       -0.0853
     30 C         141.3357  142.5247  169.5054 C.ar    1  UNL1        0.0434
     31 C         140.6005  142.7171  168.2122 C.ar    1  UNL1        0.0081
     32 C         140.7468  142.6407  170.8801 C.2     1  UNL1        0.0789
     33 O         139.3777  143.2258  171.0626 O.co2   1  UNL1       -0.5441
     34 O         141.5268  142.1716  172.0723 O.co2   1  UNL1       -0.5441
     35 C         136.9865  140.6337  155.6994 C.3     1  UNL1        0.1183
     36 C         135.4878  140.6495  155.7596 C.ar    1  UNL1        0.0712
     37 N         134.7750  139.9550  156.8819 N.ar    1  UNL1       -0.2471
     38 C         133.2762  139.9707  156.9421 C.ar    1  UNL1        0.0985
     39 C         132.4904  140.6809  155.8800 C.ar    1  UNL1        0.0203
     40 C         133.2032  141.3754  154.7577 C.ar    1  UNL1       -0.0015
     41 C         134.7019  141.3597  154.6975 C.ar    1  UNL1       -0.0069
     42 C         135.4148  142.0541  153.5752 C.3     1  UNL1        0.0323
@<TRIPOS>UNITY_ATOM_ATTR
33 1
charge -1
@<TRIPOS>BOND
     1    19    20    1
     2    20    13    1
     3    13    14   ar
     4    14    15   ar
     5    15     1    1
     6     1     2   am
     7     2     3    2
     8     2     4   am
     9     4    21    1
    10    21    22   ar
    11    22    23   ar
    12    23    24   ar
    13    24    27    1
    14    27    28   ar
    15    28    29   ar
    16    29    30   ar
    17    30    32    1
    18    32    33   ar
    19    32    34   ar
    20    30    31   ar
    21    24    25   ar
    22    25    26   ar
    23     4     5   am
    24     5     6    2
    25     5     7    1
    26     7     8    1
    27     8     9    1
    28     9    10    1
    29    10    35    1
    30    35    36    1
    31    36    37   ar
    32    37    38   ar
    33    38    39   ar
    34    39    40   ar
    35    40    41   ar
    36    41    42    1
    37    10    11    1
    38    11    12    1
    39    15    16   ar
    40    16    17   ar
    41    17    18   ar
    42    18    13   ar
    43     7     1    1
    44    41    36   ar
    45    26    21   ar
    46    12     7    1
    47    31    27   ar
@<TRIPOS>MOLECULE
*****
 42 47 0 0 0
SMALL
GASTEIGER

@<TRIPOS>ATOM
      1 N         138.8820  141.3037  158.8635 N.am    1  UNL1       -0.2222
      2 C         138.6995  141.7286  160.2905 C.2     1  UNL1        0.3219
      3 O         137.8896  142.8983  160.7655 O.2     1  UNL1       -0.2512
      4 N         139.4693  140.7782  161.1591 N.am    1  UNL1       -0.1907
      5 C         140.1274  139.7660  160.2690 C.2     1  UNL1        0.2529
      6 O         140.9960  138.6288  160.7186 O.2     1  UNL1       -0.2724
      7 C         139.7645  140.0908  158.8502 C.3     1  UNL1        0.1391
      8 C         139.3189  140.5361  157.4889 C.3     1  UNL1        0.0449
      9 C         139.7609  139.7806  156.2707 C.3     1  UNL1        0.0746
     10 N         140.6484  138.5799  156.4139 N.3     1  UNL1       -0.2676
     11 C         141.0940  138.1346  157.7752 C.3     1  UNL1        0.0746
     12 C         140.6520  138.8901  158.9933 C.3     1  UNL1        0.0449
     13 C         136.3814  142.1666  155.9051 C.ar    1  UNL1        0.2293
     14 C         136.9769  141.4963  157.1076 C.ar    1  UNL1        0.0924
     15 C         138.2866  141.9741  157.6610 C.ar    1  UNL1        0.1453
     16 N         139.0009  143.1223  157.0118 N.ar    1  UNL1       -0.2084
     17 C         138.4056  143.7927  155.8094 C.ar    1  UNL1        0.2027
     18 N         137.0957  143.3148  155.2559 N.ar    1  UNL1       -0.1892
     19 C         134.4384  140.4421  155.8943 C.3     1  UNL1        0.2542
     20 O         135.0717  141.6889  155.3517 O.3     1  UNL1       -0.4560
     21 C         139.5641  140.8308  162.6551 C.ar    1  UNL1        0.0622
     22 C         138.3775  140.4620  163.4953 C.ar    1  UNL1        0.0154
     23 C         138.4724  140.5146  164.9914 C.ar    1  UNL1        0.0013
     24 C         139.7539  140.9359  165.6473 C.ar    1  UNL1        0.0006
     25 C         140.9406  141.3047  164.8071 C.ar    1  UNL1        0.0013
     26 C         140.8456  141.2521  163.3110 C.ar    1  UNL1        0.0154
     27 C         139.8487  140.9885  167.1434 C.ar    1  UNL1        0.0070
     28 C         139.4100  139.9133  168.0930 C.ar    1  UNL1        0.0355
     29 S         139.6891  140.3858  169.4890 S.2     1  UNL1       -0.0853
     30 C         140.3003  141.7529  169.4022 C.ar    1  UNL1        0.0434
     31 C         140.3989  142.1254  167.9525 C.ar    1  UNL1        0.0081
     32 C         140.7362  142.5990  170.5615 C.2     1  UNL1        0.0789
     33 O         140.4932  142.1302  171.9655 O.co2   1  UNL1       -0.5441
     34 O         141.4152  143.9140  170.3169 O.co2   1  UNL1       -0.5441
     35 C         141.0904  137.8244  155.1957 C.3     1  UNL1        0.1183
     36 C         141.7663  136.4935  155.3427 C.ar    1  UNL1        0.0712
     37 N         140.9467  135.2386  155.4021 N.ar    1  UNL1       -0.2471
     38 C         141.6227  133.9076  155.5492 C.ar    1  UNL1        0.0985
     39 C         143.1182  133.8315  155.6369 C.ar    1  UNL1        0.0203
     40 C         143.9377  135.0864  155.5776 C.ar    1  UNL1       -0.0015
     41 C         143.2618  136.4174  155.4305 C.ar    1  UNL1       -0.0069
     42 C         144.0814  137.6723  155.3712 C.3     1  UNL1        0.0323
@<TRIPOS>UNITY_ATOM_ATTR
33 1
charge -1
@<TRIPOS>BOND
     1    19    20    1
     2    20    13    1
     3    13    14   ar
     4    14    15   ar
     5    15     1    1
     6     1     2   am
     7     2     3    2
     8     2     4   am
     9     4    21    1
    10    21    22   ar
    11    22    23   ar
    12    23    24   ar
    13    24    27    1
    14    27    28   ar
    15    28    29   ar
    16    29    30   ar
    17    30    32    1
    18    32    33   ar
    19    32    34   ar
    20    30    31   ar
    21    24    25   ar
    22    25    26   ar
    23     4     5   am
    24     5     6    2
    25     5     7    1
    26     7     8    1
    27     8     9    1
    28     9    10    1
    29    10    35    1
    30    35    36    1
    31    36    37   ar
    32    37    38   ar
    33    38    39   ar
    34    39    40   ar
    35    40    41   ar
    36    41    42    1
    37    10    11    1
    38    11    12    1
    39    15    16   ar
    40    16    17   ar
    41    17    18   ar
    42    18    13   ar
    43     7     1    1
    44    41    36   ar
    45    26    21   ar
    46    12     7    1
    47    31    27   ar
@<TRIPOS>MOLECULE
*****
 42 47 0 0 0
SMALL
GASTEIGER

@<TRIPOS>ATOM
      1 N         142.3750  138.9882  159.4625 N.am    1  UNL1       -0.2222
      2 C         142.0801  138.7222  160.9090 C.2     1  UNL1        0.3219
      3 O         141.3368  137.5389  161.4542 O.2     1  UNL1       -0.2512
      4 N         142.6592  139.8472  161.7146 N.am    1  UNL1       -0.1907
      5 C         143.3120  140.8085  160.7660 C.2     1  UNL1        0.2529
      6 O         144.0166  142.0779  161.1430 O.2     1  UNL1       -0.2724
      7 C         143.1363  140.2776  159.3741 C.3     1  UNL1        0.1391
      8 C         142.8839  139.6259  158.0469 C.3     1  UNL1        0.0449
      9 C         143.3821  140.2712  156.7877 C.3     1  UNL1        0.0746
     10 N         144.1326  141.5681  156.8558 N.3     1  UNL1       -0.2676
     11 C         144.3850  142.2198  158.1830 C.3     1  UNL1        0.0746
     12 C         143.8869  141.5745  159.4422 C.3     1  UNL1        0.0449
     13 C         142.4844  136.1355  156.7057 C.ar    1  UNL1        0.2293
     14 C         142.8812  137.0061  157.8609 C.ar    1  UNL1        0.0924
     15 C         141.9782  138.1176  158.3072 C.ar    1  UNL1        0.1453
     16 N         140.6785  138.3585  157.5982 N.ar    1  UNL1       -0.2084
     17 C         140.2816  137.4880  156.4430 C.ar    1  UNL1        0.2027
     18 N         141.1846  136.3764  155.9967 N.ar    1  UNL1       -0.1892
     19 C         143.7985  133.9564  157.2295 C.3     1  UNL1        0.2542
     20 O         143.3873  135.0240  156.2593 O.3     1  UNL1       -0.4560
     21 C         142.5966  139.9865  163.2067 C.ar    1  UNL1        0.0622
     22 C         143.3169  139.0046  164.0826 C.ar    1  UNL1        0.0154
     23 C         143.2542  139.1439  165.5748 C.ar    1  UNL1        0.0013
     24 C         142.4713  140.2651  166.1912 C.ar    1  UNL1        0.0006
     25 C         141.7510  141.2471  165.3153 C.ar    1  UNL1        0.0013
     26 C         141.8137  141.1077  163.8231 C.ar    1  UNL1        0.0154
     27 C         142.4086  140.4044  167.6834 C.ar    1  UNL1        0.0070
     28 C         142.6167  139.3038  168.6812 C.ar    1  UNL1        0.0355
     29 S         142.4636  139.8879  170.0542 S.2     1  UNL1       -0.0853
     30 C         142.1609  141.3494  169.9051 C.ar    1  UNL1        0.0434
     31 C         142.1270  141.6687  168.4398 C.ar    1  UNL1        0.0081
     32 C         141.9323  142.3212  171.0246 C.2     1  UNL1        0.0789
     33 O         140.8304  142.0805  172.0135 O.co2   1  UNL1       -0.5441
     34 O         142.8056  143.5337  171.1554 O.co2   1  UNL1       -0.5441
     35 C         144.6308  142.2133  155.5966 C.3     1  UNL1        0.1183
     36 C         146.0687  142.0652  155.1961 C.ar    1  UNL1        0.0712
     37 N         147.1478  142.1347  156.2358 N.ar    1  UNL1       -0.2471
     38 C         148.5858  141.9866  155.8352 C.ar    1  UNL1        0.0985
     39 C         148.9446  141.7690  154.3952 C.ar    1  UNL1        0.0203
     40 C         147.8656  141.6995  153.3556 C.ar    1  UNL1       -0.0015
     41 C         146.4277  141.8476  153.7560 C.ar    1  UNL1       -0.0069
     42 C         145.3486  141.7781  152.7164 C.3     1  UNL1        0.0323
@<TRIPOS>UNITY_ATOM_ATTR
33 1
charge -1
@<TRIPOS>BOND
     1    19    20    1
     2    20    13    1
     3    13    14   ar
     4    14    15   ar
     5    15     1    1
     6     1     2   am
     7     2     3    2
     8     2     4   am
     9     4    21    1
    10    21    22   ar
    11    22    23   ar
    12    23    24   ar
    13    24    27    1
    14    27    28   ar
    15    28    29   ar
    16    29    30   ar
    17    30    32    1
    18    32    33   ar
    19    32    34   ar
    20    30    31   ar
    21    24    25   ar
    22    25    26   ar
    23     4     5   am
    24     5     6    2
    25     5     7    1
    26     7     8    1
    27     8     9    1
    28     9    10    1
    29    10    35    1
    30    35    36    1
    31    36    37   ar
    32    37    38   ar
    33    38    39   ar
    34    39    40   ar
    35    40    41   ar
    36    41    42    1
    37    10    11    1
    38    11    12    1
    39    15    16   ar
    40    16    17   ar
    41    17    18   ar
    42    18    13   ar
    43     7     1    1
    44    41    36   ar
    45    26    21   ar
    46    12     7    1
    47    31    27   ar
@<TRIPOS>MOLECULE
*****
 42 47 0 0 0
SMALL
GASTEIGER

@<TRIPOS>ATOM
      1 N         138.9249  141.4960  158.8363 N.am    1  UNL1       -0.2222
      2 C         138.7551  141.9152  160.2666 C.2     1  UNL1        0.3219
      3 O         137.9939  143.1141  160.7495 O.2     1  UNL1       -0.2512
      4 N         139.4801  140.9250  161.1291 N.am    1  UNL1       -0.1907
      5 C         140.0980  139.8938  160.2320 C.2     1  UNL1        0.2529
      6 O         140.9155  138.7165  160.6741 O.2     1  UNL1       -0.2724
      7 C         139.7549  140.2467  158.8149 C.3     1  UNL1        0.1391
      8 C         139.3341  140.7229  157.4563 C.3     1  UNL1        0.0449
      9 C         139.7482  139.9604  156.2328 C.3     1  UNL1        0.0746
     10 N         140.5832  138.7216  156.3679 N.3     1  UNL1       -0.2676
     11 C         141.0040  138.2454  157.7266 C.3     1  UNL1        0.0746
     12 C         140.5899  139.0079  158.9501 C.3     1  UNL1        0.0449
     13 C         138.5242  144.0864  155.8566 C.ar    1  UNL1        0.2293
     14 C         139.0857  143.3803  157.0549 C.ar    1  UNL1        0.0924
     15 C         138.3634  142.2020  157.6380 C.ar    1  UNL1        0.1453
     16 N         137.0794  141.7299  157.0226 N.ar    1  UNL1       -0.2084
     17 C         136.5178  142.4359  155.8243 C.ar    1  UNL1        0.2027
     18 N         137.2402  143.6142  155.2412 N.ar    1  UNL1       -0.1892
     19 C         138.6538  146.6380  155.3855 C.3     1  UNL1        0.2542
     20 O         139.2464  145.2646  155.2735 O.3     1  UNL1       -0.4560
     21 C         139.5712  140.9599  162.6258 C.ar    1  UNL1        0.0622
     22 C         140.8636  141.3320  163.2901 C.ar    1  UNL1        0.0154
     23 C         140.9547  141.3669  164.7869 C.ar    1  UNL1        0.0013
     24 C         139.7535  141.0297  165.6195 C.ar    1  UNL1        0.0006
     25 C         138.4610  140.6576  164.9553 C.ar    1  UNL1        0.0013
     26 C         138.3700  140.6227  163.4584 C.ar    1  UNL1        0.0154
     27 C         139.8446  141.0646  167.1164 C.ar    1  UNL1        0.0070
     28 C         139.4388  139.9630  168.0503 C.ar    1  UNL1        0.0355
     29 S         139.7009  140.4247  169.4532 S.2     1  UNL1       -0.0853
     30 C         140.2686  141.8116  169.3863 C.ar    1  UNL1        0.0434
     31 C         140.3574  142.2070  167.9421 C.ar    1  UNL1        0.0081
     32 C         140.6760  142.6549  170.5579 C.2     1  UNL1        0.0789
     33 O         141.2406  144.0265  170.3345 O.co2   1  UNL1       -0.5441
     34 O         140.5189  142.1268  171.9530 O.co2   1  UNL1       -0.5441
     35 C         140.9973  137.9591  155.1444 C.3     1  UNL1        0.1183
     36 C         141.7455  136.6665  155.2837 C.ar    1  UNL1        0.0712
     37 N         140.9965  135.3678  155.3319 N.ar    1  UNL1       -0.2471
     38 C         141.7447  134.0752  155.4712 C.ar    1  UNL1        0.0985
     39 C         143.2419  134.0813  155.5623 C.ar    1  UNL1        0.0203
     40 C         143.9909  135.3800  155.5140 C.ar    1  UNL1       -0.0015
     41 C         143.2428  136.6726  155.3747 C.ar    1  UNL1       -0.0069
     42 C         143.9918  137.9713  155.3265 C.3     1  UNL1        0.0323
@<TRIPOS>UNITY_ATOM_ATTR
33 1
charge -1
@<TRIPOS>BOND
     1    19    20    1
     2    20    13    1
     3    13    14   ar
     4    14    15   ar
     5    15     1    1
     6     1     2   am
     7     2     3    2
     8     2     4   am
     9     4    21    1
    10    21    22   ar
    11    22    23   ar
    12    23    24   ar
    13    24    27    1
    14    27    28   ar
    15    28    29   ar
    16    29    30   ar
    17    30    32    1
    18    32    33   ar
    19    32    34   ar
    20    30    31   ar
    21    24    25   ar
    22    25    26   ar
    23     4     5   am
    24     5     6    2
    25     5     7    1
    26     7     8    1
    27     8     9    1
    28     9    10    1
    29    10    35    1
    30    35    36    1
    31    36    37   ar
    32    37    38   ar
    33    38    39   ar
    34    39    40   ar
    35    40    41   ar
    36    41    42    1
    37    10    11    1
    38    11    12    1
    39    15    16   ar
    40    16    17   ar
    41    17    18   ar
    42    18    13   ar
    43     7     1    1
    44    41    36   ar
    45    26    21   ar
    46    12     7    1
    47    31    27   ar
