@<TRIPOS>MOLECULE
*****
 28 30 0 0 0
SMALL
GASTEIGER

@<TRIPOS>ATOM
      1 N         138.3633  140.4549  161.1143 N.3     1  UNL1       -0.1466
      2 C         138.6728  139.0186  161.4164 C.3     1  UNL1        0.1222
      3 C         138.6555  138.8441  162.9061 C.ar    1  UNL1       -0.0071
      4 C         138.8900  137.6472  163.7793 C.ar    1  UNL1       -0.0031
      5 C         138.8042  137.7788  165.2710 C.ar    1  UNL1       -0.0003
      6 C         138.4840  139.1072  165.8896 C.ar    1  UNL1       -0.0001
      7 C         138.2495  140.3041  165.0164 C.ar    1  UNL1       -0.0031
      8 C         138.3353  140.1726  163.5247 C.ar    1  UNL1       -0.0071
      9 C         138.1547  141.1680  162.4173 C.3     1  UNL1        0.1222
     10 S         138.2774  141.0700  159.7489 S.O2    1  UNL1        0.0639
     11 O         138.2129  139.7021  159.1367 O.2     1  UNL1       -0.1528
     12 O         138.3419  142.4378  160.3610 O.2     1  UNL1       -0.1528
     13 C         138.0198  142.9152  155.6527 C.ar    1  UNL1        0.1388
     14 C         138.8991  143.5325  156.6994 C.ar    1  UNL1        0.0383
     15 C         138.9850  142.9174  158.0648 C.ar    1  UNL1        0.0230
     16 C         138.1916  141.6850  158.3835 C.ar    1  UNL1        0.1224
     17 C         137.3122  141.0677  157.3367 C.ar    1  UNL1        0.0230
     18 C         137.2264  141.6828  155.9714 C.ar    1  UNL1        0.0383
     19 C         136.6108  143.6184  153.5863 C.3     1  UNL1        0.2525
     20 O         137.9340  143.5303  154.2873 O.3     1  UNL1       -0.4714
     21 C         138.3982  139.2387  167.3814 C.2     1  UNL1        0.0047
     22 C         139.4622  139.9844  168.1310 C.2     1  UNL1        0.0598
     23 C         139.3764  140.1159  169.6228 C.2     1  UNL1        0.2679
     24 O         138.0561  139.9517  170.3154 O.2     1  UNL1       -0.2681
     25 N         140.6109  140.4115  170.4218 N.am    1  UNL1       -0.1934
     26 O         140.5251  140.5430  171.9135 O.3     1  UNL1       -0.2949
     27 H         141.4775  140.5193  169.9672 H       1  UNL1        0.1825
     28 H         139.6073  140.4095  172.1976 H       1  UNL1        0.2414
@<TRIPOS>BOND
     1    19    20    1
     2    20    13    1
     3    13    14   ar
     4    14    15   ar
     5    15    16   ar
     6    16    10    1
     7    10    11    2
     8    10    12    2
     9    10     1    1
    10     1     2    1
    11     2     3    1
    12     3     4   ar
    13     4     5   ar
    14     5     6   ar
    15     6    21    1
    16    21    22    2
    17    22    23    1
    18    23    24    2
    19    23    25   am
    20    25    26    1
    21     6     7   ar
    22     7     8   ar
    23     8     9    1
    24    16    17   ar
    25    17    18   ar
    26    18    13   ar
    27     9     1    1
    28     8     3   ar
    29    25    27    1
    30    26    28    1
@<TRIPOS>MOLECULE
*****
 28 30 0 0 0
SMALL
GASTEIGER

@<TRIPOS>ATOM
      1 N         140.8067  144.3444  161.4173 N.3     1  UNL1       -0.1466
      2 C         139.7042  145.0302  162.1686 C.3     1  UNL1        0.1222
      3 C         139.7329  144.5382  163.5853 C.ar    1  UNL1       -0.0071
      4 C         138.8837  144.8636  164.7782 C.ar    1  UNL1       -0.0031
      5 C         139.1547  144.1992  166.0954 C.ar    1  UNL1       -0.0003
      6 C         140.2749  143.2094  166.2197 C.ar    1  UNL1       -0.0001
      7 C         141.1241  142.8840  165.0269 C.ar    1  UNL1       -0.0031
      8 C         140.8531  143.5484  163.7097 C.ar    1  UNL1       -0.0071
      9 C         141.5167  143.4286  162.3698 C.3     1  UNL1        0.1222
     10 S         141.1405  144.5402  159.9681 S.O2    1  UNL1        0.0639
     11 O         142.5968  144.3608  160.2793 O.2     1  UNL1       -0.1528
     12 O         139.6841  144.7195  159.6569 O.2     1  UNL1       -0.1528
     13 C         142.1419  145.1273  155.6204 C.ar    1  UNL1        0.1388
     14 C         141.1901  146.0637  156.3039 C.ar    1  UNL1        0.0383
     15 C         140.8563  145.8680  157.7531 C.ar    1  UNL1        0.0230
     16 C         141.4743  144.7359  158.5189 C.ar    1  UNL1        0.1224
     17 C         142.4261  143.7995  157.8354 C.ar    1  UNL1        0.0230
     18 C         142.7599  143.9952  156.3861 C.ar    1  UNL1        0.0383
     19 C         143.8075  144.8804  153.6419 C.3     1  UNL1        0.2525
     20 O         142.4757  145.3230  154.1712 O.3     1  UNL1       -0.4714
     21 C         140.5459  142.5450  167.5370 C.2     1  UNL1        0.0047
     22 C         140.3025  143.2891  168.8165 C.2     1  UNL1        0.0598
     23 C         140.5735  142.6246  170.1338 C.2     1  UNL1        0.2679
     24 O         139.5467  141.7146  170.7400 O.2     1  UNL1       -0.2681
     25 N         141.8712  142.8703  170.8447 N.am    1  UNL1       -0.1934
     26 O         142.1421  142.2059  172.1620 O.3     1  UNL1       -0.2949
     27 H         142.5451  143.4675  170.4468 H       1  UNL1        0.1825
     28 H         141.3823  141.6559  172.4090 H       1  UNL1        0.2414
@<TRIPOS>BOND
     1    19    20    1
     2    20    13    1
     3    13    14   ar
     4    14    15   ar
     5    15    16   ar
     6    16    10    1
     7    10    11    2
     8    10    12    2
     9    10     1    1
    10     1     2    1
    11     2     3    1
    12     3     4   ar
    13     4     5   ar
    14     5     6   ar
    15     6    21    1
    16    21    22    2
    17    22    23    1
    18    23    24    2
    19    23    25   am
    20    25    26    1
    21     6     7   ar
    22     7     8   ar
    23     8     9    1
    24    16    17   ar
    25    17    18   ar
    26    18    13   ar
    27     9     1    1
    28     8     3   ar
    29    25    27    1
    30    26    28    1
@<TRIPOS>MOLECULE
*****
 28 30 0 0 0
SMALL
GASTEIGER

@<TRIPOS>ATOM
      1 N         141.6346  143.7743  162.1617 N.3     1  UNL1       -0.1466
      2 C         142.8967  143.6937  162.9684 C.3     1  UNL1        0.1222
      3 C         142.5468  143.1559  164.3242 C.ar    1  UNL1       -0.0071
      4 C         143.3833  142.8628  165.5343 C.ar    1  UNL1       -0.0031
      5 C         142.7414  142.3181  166.7757 C.ar    1  UNL1       -0.0003
      6 C         141.2630  142.0663  166.8070 C.ar    1  UNL1       -0.0001
      7 C         140.4265  142.3593  165.5969 C.ar    1  UNL1       -0.0031
      8 C         141.0684  142.9041  164.3555 C.ar    1  UNL1       -0.0071
      9 C         140.5047  143.2863  163.0191 C.3     1  UNL1        0.1222
     10 S         141.5223  144.2581  160.7463 S.O2    1  UNL1        0.0639
     11 O         140.0770  144.5889  160.9741 O.2     1  UNL1       -0.1528
     12 O         142.9675  143.9273  160.5185 O.2     1  UNL1       -0.1528
     13 C         141.1851  145.7092  156.5001 C.ar    1  UNL1        0.1388
     14 C         142.3226  144.8168  156.8996 C.ar    1  UNL1        0.0383
     15 C         142.4350  144.3331  158.3150 C.ar    1  UNL1        0.0230
     16 C         141.4099  144.7418  159.3309 C.ar    1  UNL1        0.1224
     17 C         140.2724  145.6342  158.9314 C.ar    1  UNL1        0.0230
     18 C         140.1601  146.1180  157.5160 C.ar    1  UNL1        0.0383
     19 C         140.1826  147.3551  154.7577 C.3     1  UNL1        0.2525
     20 O         141.0728  146.1929  155.0847 O.3     1  UNL1       -0.4714
     21 C         140.6212  141.5214  168.0485 C.2     1  UNL1        0.0047
     22 C         141.3596  141.5604  169.3536 C.2     1  UNL1        0.0598
     23 C         140.7177  141.0155  170.5951 C.2     1  UNL1        0.2679
     24 O         140.5963  141.8775  171.8167 O.2     1  UNL1       -0.2681
     25 N         140.1973  139.6089  170.6149 N.am    1  UNL1       -0.1934
     26 O         139.5555  139.0641  171.8563 O.3     1  UNL1       -0.2949
     27 H         140.2770  139.0432  169.8131 H       1  UNL1        0.1825
     28 H         139.5576  139.7453  172.5470 H       1  UNL1        0.2414
@<TRIPOS>BOND
     1    19    20    1
     2    20    13    1
     3    13    14   ar
     4    14    15   ar
     5    15    16   ar
     6    16    10    1
     7    10    11    2
     8    10    12    2
     9    10     1    1
    10     1     2    1
    11     2     3    1
    12     3     4   ar
    13     4     5   ar
    14     5     6   ar
    15     6    21    1
    16    21    22    2
    17    22    23    1
    18    23    24    2
    19    23    25   am
    20    25    26    1
    21     6     7   ar
    22     7     8   ar
    23     8     9    1
    24    16    17   ar
    25    17    18   ar
    26    18    13   ar
    27     9     1    1
    28     8     3   ar
    29    25    27    1
    30    26    28    1
@<TRIPOS>MOLECULE
*****
 28 30 0 0 0
SMALL
GASTEIGER

@<TRIPOS>ATOM
      1 N         140.5463  144.5892  161.5384 N.3     1  UNL1       -0.1466
      2 C         139.4366  145.1281  162.3918 C.3     1  UNL1        0.1222
      3 C         139.6179  144.5920  163.7810 C.ar    1  UNL1       -0.0071
      4 C         138.8284  144.7838  165.0418 C.ar    1  UNL1       -0.0031
      5 C         139.2605  144.1054  166.3078 C.ar    1  UNL1       -0.0003
      6 C         140.4822  143.2350  166.3130 C.ar    1  UNL1       -0.0001
      7 C         141.2717  143.0432  165.0522 C.ar    1  UNL1       -0.0031
      8 C         140.8396  143.7216  163.7861 C.ar    1  UNL1       -0.0071
      9 C         141.4133  143.7199  162.4002 C.3     1  UNL1        0.1222
     10 S         140.7526  144.8701  160.0795 S.O2    1  UNL1        0.0639
     11 O         139.6945  145.9319  160.1343 O.2     1  UNL1       -0.1528
     12 O         141.8107  143.8083  160.0247 O.2     1  UNL1       -0.1528
     13 C         141.3716  145.7130  155.7027 C.ar    1  UNL1        0.1388
     14 C         142.2699  144.7454  156.4145 C.ar    1  UNL1        0.0383
     15 C         142.0636  144.4645  157.8735 C.ar    1  UNL1        0.0230
     16 C         140.9589  145.1511  158.6206 C.ar    1  UNL1        0.1224
     17 C         140.0606  146.1186  157.9087 C.ar    1  UNL1        0.0230
     18 C         140.2669  146.3996  156.4498 C.ar    1  UNL1        0.0383
     19 C         140.8690  145.1663  153.2130 C.3     1  UNL1        0.2525
     20 O         141.5779  145.9939  154.2438 O.3     1  UNL1       -0.4714
     21 C         140.9144  142.5565  167.5791 C.2     1  UNL1        0.0047
     22 C         140.4406  143.0721  168.9057 C.2     1  UNL1        0.0598
     23 C         140.8727  142.3936  170.1718 C.2     1  UNL1        0.2679
     24 O         142.1189  142.8426  170.8756 O.2     1  UNL1       -0.2681
     25 N         140.0587  141.2661  170.7340 N.am    1  UNL1       -0.1934
     26 O         140.4909  140.5877  172.0001 O.3     1  UNL1       -0.2949
     27 H         139.2408  140.9714  170.2721 H       1  UNL1        0.1825
     28 H         141.3092  140.9964  172.3228 H       1  UNL1        0.2414
@<TRIPOS>BOND
     1    19    20    1
     2    20    13    1
     3    13    14   ar
     4    14    15   ar
     5    15    16   ar
     6    16    10    1
     7    10    11    2
     8    10    12    2
     9    10     1    1
    10     1     2    1
    11     2     3    1
    12     3     4   ar
    13     4     5   ar
    14     5     6   ar
    15     6    21    1
    16    21    22    2
    17    22    23    1
    18    23    24    2
    19    23    25   am
    20    25    26    1
    21     6     7   ar
    22     7     8   ar
    23     8     9    1
    24    16    17   ar
    25    17    18   ar
    26    18    13   ar
    27     9     1    1
    28     8     3   ar
    29    25    27    1
    30    26    28    1
@<TRIPOS>MOLECULE
*****
 28 30 0 0 0
SMALL
GASTEIGER

@<TRIPOS>ATOM
      1 N         139.1293  141.6453  162.4718 N.3     1  UNL1       -0.1466
      2 C         138.2339  140.5570  162.9853 C.3     1  UNL1        0.1222
      3 C         138.5891  140.3029  164.4203 C.ar    1  UNL1       -0.0071
      4 C         138.0414  139.3438  165.4352 C.ar    1  UNL1       -0.0031
      5 C         138.6087  139.3160  166.8235 C.ar    1  UNL1       -0.0003
      6 C         139.7237  140.2474  167.1969 C.ar    1  UNL1       -0.0001
      7 C         140.2714  141.2065  166.1820 C.ar    1  UNL1       -0.0031
      8 C         139.7041  141.2342  164.7937 C.ar    1  UNL1       -0.0071
      9 C         140.0379  142.0639  163.5895 C.3     1  UNL1        0.1222
     10 S         139.1180  142.2151  161.0843 S.O2    1  UNL1        0.0639
     11 O         138.0733  143.2079  161.5004 O.2     1  UNL1       -0.1528
     12 O         140.1626  141.2224  160.6681 O.2     1  UNL1       -0.1528
     13 C         139.0841  143.9244  156.9217 C.ar    1  UNL1        0.1388
     14 C         139.9885  144.5097  157.9654 C.ar    1  UNL1        0.0383
     15 C         139.9998  143.9399  159.3530 C.ar    1  UNL1        0.0230
     16 C         139.1067  142.7849  159.6967 C.ar    1  UNL1        0.1224
     17 C         138.2023  142.1996  158.6530 C.ar    1  UNL1        0.0230
     18 C         138.1910  142.7694  157.2655 C.ar    1  UNL1        0.0383
     19 C         137.7692  144.8229  154.8689 C.3     1  UNL1        0.2525
     20 O         139.0728  144.4942  155.5342 O.3     1  UNL1       -0.4714
     21 C         140.2909  140.2196  168.5853 C.2     1  UNL1        0.0047
     22 C         140.2804  141.4626  169.4247 C.2     1  UNL1        0.0598
     23 C         140.8477  141.4348  170.8131 C.2     1  UNL1        0.2679
     24 O         140.2470  142.2939  171.8860 O.2     1  UNL1       -0.2681
     25 N         142.0156  140.5480  171.1285 N.am    1  UNL1       -0.1934
     26 O         142.5828  140.5202  172.5169 O.3     1  UNL1       -0.2949
     27 H         142.4098  139.9841  170.4244 H       1  UNL1        0.1825
     28 H         142.0825  141.1288  173.0827 H       1  UNL1        0.2414
@<TRIPOS>BOND
     1    19    20    1
     2    20    13    1
     3    13    14   ar
     4    14    15   ar
     5    15    16   ar
     6    16    10    1
     7    10    11    2
     8    10    12    2
     9    10     1    1
    10     1     2    1
    11     2     3    1
    12     3     4   ar
    13     4     5   ar
    14     5     6   ar
    15     6    21    1
    16    21    22    2
    17    22    23    1
    18    23    24    2
    19    23    25   am
    20    25    26    1
    21     6     7   ar
    22     7     8   ar
    23     8     9    1
    24    16    17   ar
    25    17    18   ar
    26    18    13   ar
    27     9     1    1
    28     8     3   ar
    29    25    27    1
    30    26    28    1
@<TRIPOS>MOLECULE
*****
 28 30 0 0 0
SMALL
GASTEIGER

@<TRIPOS>ATOM
      1 N         139.6447  142.8334  161.7655 N.3     1  UNL1       -0.1466
      2 C         138.7310  141.7156  162.1724 C.3     1  UNL1        0.1222
      3 C         138.9857  141.4121  163.6191 C.ar    1  UNL1       -0.0071
      4 C         138.3807  140.4088  164.5558 C.ar    1  UNL1       -0.0031
      5 C         138.8468  140.3358  165.9796 C.ar    1  UNL1       -0.0003
      6 C         139.9179  141.2660  166.4668 C.ar    1  UNL1       -0.0001
      7 C         140.5230  142.2692  165.5302 C.ar    1  UNL1       -0.0031
      8 C         140.0569  142.3423  164.1063 C.ar    1  UNL1       -0.0071
      9 C         140.4642  143.2207  162.9607 C.3     1  UNL1        0.1222
     10 S         139.7250  143.4548  160.4026 S.O2    1  UNL1        0.0639
     11 O         138.3354  142.9762  160.1026 O.2     1  UNL1       -0.1528
     12 O         141.1145  143.9335  160.7026 O.2     1  UNL1       -0.1528
     13 C         139.9656  145.3190  156.3140 C.ar    1  UNL1        0.1388
     14 C         139.3026  143.9855  156.4923 C.ar    1  UNL1        0.0383
     15 C         139.2224  143.3640  157.8552 C.ar    1  UNL1        0.0230
     16 C         139.8052  144.0762  159.0397 C.ar    1  UNL1        0.1224
     17 C         140.4682  145.4098  158.8613 C.ar    1  UNL1        0.0230
     18 C         140.5484  146.0312  157.4985 C.ar    1  UNL1        0.0383
     19 C         139.6202  147.3646  154.7499 C.3     1  UNL1        0.2525
     20 O         140.0458  145.9404  154.9511 O.3     1  UNL1       -0.4714
     21 C         140.3840  141.1929  167.8907 C.2     1  UNL1        0.0047
     22 C         139.7909  140.1785  168.8229 C.2     1  UNL1        0.0598
     23 C         140.2570  140.1054  170.2469 C.2     1  UNL1        0.2679
     24 O         139.4448  139.3607  171.2646 O.2     1  UNL1       -0.2681
     25 N         141.5352  140.7770  170.6530 N.am    1  UNL1       -0.1934
     26 O         142.0013  140.7039  172.0769 O.3     1  UNL1       -0.2949
     27 H         142.0683  141.2658  169.9850 H       1  UNL1        0.1825
     28 H         141.3659  140.1896  172.5990 H       1  UNL1        0.2414
@<TRIPOS>BOND
     1    19    20    1
     2    20    13    1
     3    13    14   ar
     4    14    15   ar
     5    15    16   ar
     6    16    10    1
     7    10    11    2
     8    10    12    2
     9    10     1    1
    10     1     2    1
    11     2     3    1
    12     3     4   ar
    13     4     5   ar
    14     5     6   ar
    15     6    21    1
    16    21    22    2
    17    22    23    1
    18    23    24    2
    19    23    25   am
    20    25    26    1
    21     6     7   ar
    22     7     8   ar
    23     8     9    1
    24    16    17   ar
    25    17    18   ar
    26    18    13   ar
    27     9     1    1
    28     8     3   ar
    29    25    27    1
    30    26    28    1
@<TRIPOS>MOLECULE
*****
 28 30 0 0 0
SMALL
GASTEIGER

@<TRIPOS>ATOM
      1 N         140.1755  138.8042  162.4655 N.3     1  UNL1       -0.1466
      2 C         138.9537  138.2770  163.1578 C.3     1  UNL1        0.1222
      3 C         139.0157  138.7016  164.5951 C.ar    1  UNL1       -0.0071
      4 C         138.0876  138.4713  165.7506 C.ar    1  UNL1       -0.0031
      5 C         138.4196  139.0306  167.1023 C.ar    1  UNL1       -0.0003
      6 C         139.6797  139.8203  167.2983 C.ar    1  UNL1       -0.0001
      7 C         140.6079  140.0506  166.1427 C.ar    1  UNL1       -0.0031
      8 C         140.2759  139.4913  164.7911 C.ar    1  UNL1       -0.0071
      9 C         140.9927  139.5546  163.4750 C.3     1  UNL1        0.1222
     10 S         140.5197  138.6142  161.0179 S.O2    1  UNL1        0.0639
     11 O         139.1470  138.0657  160.7635 O.2     1  UNL1       -0.1528
     12 O         141.8925  139.1627  161.2724 O.2     1  UNL1       -0.1528
     13 C         141.5523  138.0444  156.6752 C.ar    1  UNL1        0.1388
     14 C         142.6402  138.0709  157.7076 C.ar    1  UNL1        0.0383
     15 C         142.2960  138.2609  159.1551 C.ar    1  UNL1        0.0230
     16 C         140.8639  138.4243  159.5703 C.ar    1  UNL1        0.1224
     17 C         139.7761  138.3977  158.5380 C.ar    1  UNL1        0.0230
     18 C         140.1203  138.2078  157.0904 C.ar    1  UNL1        0.0383
     19 C         141.2465  136.7558  154.4401 C.3     1  UNL1        0.2525
     20 O         141.8965  137.8545  155.2277 O.3     1  UNL1       -0.4714
     21 C         140.0117  140.3796  168.6500 C.2     1  UNL1        0.0047
     22 C         140.3064  141.8421  168.8047 C.2     1  UNL1        0.0598
     23 C         140.6384  142.4015  170.1564 C.2     1  UNL1        0.2679
     24 O         139.8016  143.5016  170.7390 O.2     1  UNL1       -0.2681
     25 N         141.8071  141.8606  170.9255 N.am    1  UNL1       -0.1934
     26 O         142.1391  142.4199  172.2771 O.3     1  UNL1       -0.2949
     27 H         142.3563  141.1385  170.5432 H       1  UNL1        0.1825
     28 H         141.5047  143.1181  172.5028 H       1  UNL1        0.2414
@<TRIPOS>BOND
     1    19    20    1
     2    20    13    1
     3    13    14   ar
     4    14    15   ar
     5    15    16   ar
     6    16    10    1
     7    10    11    2
     8    10    12    2
     9    10     1    1
    10     1     2    1
    11     2     3    1
    12     3     4   ar
    13     4     5   ar
    14     5     6   ar
    15     6    21    1
    16    21    22    2
    17    22    23    1
    18    23    24    2
    19    23    25   am
    20    25    26    1
    21     6     7   ar
    22     7     8   ar
    23     8     9    1
    24    16    17   ar
    25    17    18   ar
    26    18    13   ar
    27     9     1    1
    28     8     3   ar
    29    25    27    1
    30    26    28    1
@<TRIPOS>MOLECULE
*****
 28 30 0 0 0
SMALL
GASTEIGER

@<TRIPOS>ATOM
      1 N         139.0896  139.8225  162.2589 N.3     1  UNL1       -0.1466
      2 C         138.2761  138.9263  163.1449 C.3     1  UNL1        0.1222
      3 C         138.6156  139.2507  164.5695 C.ar    1  UNL1       -0.0071
      4 C         138.1250  138.6891  165.8710 C.ar    1  UNL1       -0.0031
      5 C         138.6579  139.2242  167.1671 C.ar    1  UNL1       -0.0003
      6 C         139.6812  140.3209  167.1615 C.ar    1  UNL1       -0.0001
      7 C         140.1717  140.8825  165.8600 C.ar    1  UNL1       -0.0031
      8 C         139.6389  140.3473  164.5640 C.ar    1  UNL1       -0.0071
      9 C         139.9319  140.7008  163.1360 C.3     1  UNL1        0.1222
     10 S         139.0652  139.8378  160.7592 S.O2    1  UNL1        0.0639
     11 O         140.3175  139.0126  160.7304 O.2     1  UNL1       -0.1528
     12 O         137.8129  140.6630  160.7880 O.2     1  UNL1       -0.1528
     13 C         138.9918  139.8836  156.2600 C.ar    1  UNL1        0.1388
     14 C         138.3318  140.9873  157.0322 C.ar    1  UNL1        0.0383
     15 C         138.3563  140.9720  158.5319 C.ar    1  UNL1        0.0230
     16 C         139.0407  139.8531  159.2595 C.ar    1  UNL1        0.1224
     17 C         139.7007  138.7494  158.4873 C.ar    1  UNL1        0.0230
     18 C         139.6763  138.7647  156.9876 C.ar    1  UNL1        0.0383
     19 C         138.3139  141.0360  154.0324 C.3     1  UNL1        0.2525
     20 O         138.9674  139.8989  154.7603 O.3     1  UNL1       -0.4714
     21 C         140.2141  140.8560  168.4577 C.2     1  UNL1        0.0047
     22 C         140.4994  142.3213  168.6034 C.2     1  UNL1        0.0598
     23 C         141.0322  142.8565  169.8995 C.2     1  UNL1        0.2679
     24 O         140.8801  144.3119  170.2291 O.2     1  UNL1       -0.2681
     25 N         141.7171  141.9362  170.8659 N.am    1  UNL1       -0.1934
     26 O         142.2499  142.4713  172.1619 O.3     1  UNL1       -0.2949
     27 H         141.8170  140.9809  170.6495 H       1  UNL1        0.1825
     28 H         142.0701  143.4229  172.2171 H       1  UNL1        0.2414
@<TRIPOS>BOND
     1    19    20    1
     2    20    13    1
     3    13    14   ar
     4    14    15   ar
     5    15    16   ar
     6    16    10    1
     7    10    11    2
     8    10    12    2
     9    10     1    1
    10     1     2    1
    11     2     3    1
    12     3     4   ar
    13     4     5   ar
    14     5     6   ar
    15     6    21    1
    16    21    22    2
    17    22    23    1
    18    23    24    2
    19    23    25   am
    20    25    26    1
    21     6     7   ar
    22     7     8   ar
    23     8     9    1
    24    16    17   ar
    25    17    18   ar
    26    18    13   ar
    27     9     1    1
    28     8     3   ar
    29    25    27    1
    30    26    28    1
@<TRIPOS>MOLECULE
*****
 28 30 0 0 0
SMALL
GASTEIGER

@<TRIPOS>ATOM
      1 N         141.2192  141.9543  166.1524 N.3     1  UNL1       -0.1466
      2 C         140.6824  142.2313  167.5254 C.3     1  UNL1        0.1222
      3 C         141.2074  141.1735  168.4504 C.ar    1  UNL1       -0.0071
      4 C         141.0125  140.9376  169.9188 C.ar    1  UNL1       -0.0031
      5 C         141.6788  139.7710  170.5859 C.ar    1  UNL1       -0.0003
      6 C         142.5400  138.8403  169.7845 C.ar    1  UNL1       -0.0001
      7 C         142.7349  139.0762  168.3161 C.ar    1  UNL1       -0.0031
      8 C         142.0686  140.2428  167.6491 C.ar    1  UNL1       -0.0071
      9 C         142.0758  140.7254  166.2288 C.3     1  UNL1        0.1222
     10 S         140.9470  142.7641  164.9194 S.O2    1  UNL1        0.0639
     11 O         141.9948  141.9877  164.1782 O.2     1  UNL1       -0.1528
     12 O         139.8992  143.5405  165.6606 O.2     1  UNL1       -0.1528
     13 C         140.1305  145.1935  161.2206 C.ar    1  UNL1        0.1388
     14 C         139.4749  145.5605  162.5188 C.ar    1  UNL1        0.0383
     15 C         139.7471  144.7507  163.7517 C.ar    1  UNL1        0.0230
     16 C         140.6749  143.5739  163.6865 C.ar    1  UNL1        0.1224
     17 C         141.3305  143.2069  162.3883 C.ar    1  UNL1        0.0230
     18 C         141.0583  144.0166  161.1553 C.ar    1  UNL1        0.0383
     19 C         140.3015  145.4991  158.6462 C.3     1  UNL1        0.2525
     20 O         139.8584  146.0033  159.9876 O.3     1  UNL1       -0.4714
     21 C         143.2063  137.6736  170.4517 C.2     1  UNL1        0.0047
     22 C         144.4790  137.8752  171.2194 C.2     1  UNL1        0.0598
     23 C         145.1453  136.7085  171.8866 C.2     1  UNL1        0.2679
     24 O         144.8636  135.3131  171.4139 O.2     1  UNL1       -0.2681
     25 N         146.0932  136.9373  173.0263 N.am    1  UNL1       -0.1934
     26 O         146.7594  135.7707  173.6934 O.3     1  UNL1       -0.2949
     27 H         146.2780  137.8532  173.3366 H       1  UNL1        0.1825
     28 H         146.4702  134.9475  173.2696 H       1  UNL1        0.2414
@<TRIPOS>BOND
     1    19    20    1
     2    20    13    1
     3    13    14   ar
     4    14    15   ar
     5    15    16   ar
     6    16    10    1
     7    10    11    2
     8    10    12    2
     9    10     1    1
    10     1     2    1
    11     2     3    1
    12     3     4   ar
    13     4     5   ar
    14     5     6   ar
    15     6    21    1
    16    21    22    2
    17    22    23    1
    18    23    24    2
    19    23    25   am
    20    25    26    1
    21     6     7   ar
    22     7     8   ar
    23     8     9    1
    24    16    17   ar
    25    17    18   ar
    26    18    13   ar
    27     9     1    1
    28     8     3   ar
    29    25    27    1
    30    26    28    1
