@<TRIPOS>MOLECULE
*****
 30 31 0 0 0
SMALL
GASTEIGER

@<TRIPOS>ATOM
      1 C         140.7290  145.3508  162.7395 C.3     1  UNL1        0.1697
      2 O         140.3289  146.7431  162.3506 O.3     1  UNL1       -0.3793
      3 H         140.8565  147.0304  161.5890 H       1  UNL1        0.2106
      4 C         140.0571  144.6729  163.8966 C.3     1  UNL1        0.2358
      5 O         139.7102  143.2160  163.8138 O.3     1  UNL1       -0.4728
      6 C         139.7705  140.6741  167.5266 C.ar    1  UNL1        0.0646
      7 C         139.2336  140.1140  166.2429 C.ar    1  UNL1        0.0190
      8 C         139.2135  140.9613  165.0053 C.ar    1  UNL1        0.0382
      9 C         139.7303  142.3687  165.0514 C.ar    1  UNL1        0.1388
     10 C         140.2672  142.9288  166.3351 C.ar    1  UNL1        0.0382
     11 C         140.2874  142.0815  167.5727 C.ar    1  UNL1        0.0190
     12 N         139.7907  139.8268  168.7643 N.pl3   1  UNL1       -0.2187
     13 H         139.4401  138.9072  168.7370 H       1  UNL1        0.1734
     14 C         140.8990  140.9344  171.3226 C.3     1  UNL1        0.1996
     15 S         140.3448  140.3806  170.0434 S.O2    1  UNL1        0.0558
     16 O         138.9929  140.9292  170.3916 O.2     1  UNL1       -0.1544
     17 O         141.6968  139.8320  169.6951 O.2     1  UNL1       -0.1544
     18 C         141.8012  144.6364  161.9713 C.3     1  UNL1        0.1021
     19 N         143.2438  144.9734  162.2068 N.3     1  UNL1       -0.2951
     20 H         143.2600  145.8496  162.7288 H       1  UNL1        0.1233
     21 C         144.1275  144.0127  162.9456 C.3     1  UNL1        0.0734
     22 C         143.6854  143.4482  164.2631 C.3     1  UNL1        0.0435
     23 C         143.2786  142.0078  164.3634 C.ar    1  UNL1       -0.0184
     24 C         142.7539  141.2908  163.1548 C.ar    1  UNL1       -0.0018
     25 C         142.3472  139.8505  163.2551 C.ar    1  UNL1        0.0316
     26 C         142.4652  139.1273  164.5639 C.ar    1  UNL1        0.1674
     27 F         142.0584  137.6869  164.6642 F       1  UNL1       -0.2018
     28 C         142.9898  139.8443  165.7724 C.ar    1  UNL1        0.1671
     29 F         143.1078  139.1210  167.0812 F       1  UNL1       -0.2018
     30 C         143.3965  141.2846  165.6722 C.ar    1  UNL1        0.0277
@<TRIPOS>BOND
     1    14    15    1
     2    15    16    2
     3    15    17    2
     4    15    12    1
     5    12     6    1
     6     6     7   ar
     7     7     8   ar
     8     8     9   ar
     9     9     5    1
    10     5     4    1
    11     4     1    1
    12     1     2    1
    13     1    18    1
    14    18    19    1
    15    19    21    1
    16    21    22    1
    17    22    23    1
    18    23    24   ar
    19    24    25   ar
    20    25    26   ar
    21    26    27    1
    22    26    28   ar
    23    28    29    1
    24    28    30   ar
    25     9    10   ar
    26    10    11   ar
    27    11     6   ar
    28    30    23   ar
    29    12    13    1
    30     2     3    1
    31    19    20    1
@<TRIPOS>MOLECULE
*****
 30 31 0 0 0
SMALL
GASTEIGER

@<TRIPOS>ATOM
      1 C         140.5551  141.6838  170.5475 C.3     1  UNL1        0.1697
      2 O         140.4485  142.2043  171.9503 O.3     1  UNL1       -0.3793
      3 H         141.2836  142.6287  172.2020 H       1  UNL1        0.2106
      4 C         139.3895  140.9802  169.9180 C.3     1  UNL1        0.2358
      5 O         139.6211  139.8023  169.0187 O.3     1  UNL1       -0.4728
      6 C         138.6107  140.0794  164.6424 C.ar    1  UNL1        0.0646
      7 C         138.1234  138.9148  165.4523 C.ar    1  UNL1        0.0190
      8 C         138.4603  138.8224  166.9111 C.ar    1  UNL1        0.0382
      9 C         139.2843  139.8946  167.5600 C.ar    1  UNL1        0.1388
     10 C         139.7716  141.0593  166.7500 C.ar    1  UNL1        0.0382
     11 C         139.4348  141.1517  165.2913 C.ar    1  UNL1        0.0190
     12 N         138.2739  140.1718  163.1836 N.pl3   1  UNL1       -0.2187
     13 H         138.0720  139.3551  162.6724 H       1  UNL1        0.1734
     14 C         138.2153  142.8454  161.8241 C.3     1  UNL1        0.1996
     15 S         138.2446  141.5086  162.5039 S.O2    1  UNL1        0.0558
     16 O         136.8643  141.7504  163.0388 O.2     1  UNL1       -0.1544
     17 O         139.6249  141.2668  161.9689 O.2     1  UNL1       -0.1544
     18 C         141.8274  141.8670  169.7743 C.3     1  UNL1        0.1021
     19 N         142.6339  140.6709  169.3630 N.3     1  UNL1       -0.2951
     20 H         142.1246  139.8477  169.6845 H       1  UNL1        0.1233
     21 C         142.9541  140.4440  167.9153 C.3     1  UNL1        0.0734
     22 C         142.8474  139.0668  167.3305 C.3     1  UNL1        0.0435
     23 C         142.8389  138.8828  165.8418 C.ar    1  UNL1       -0.0184
     24 C         141.7722  138.0498  165.1951 C.ar    1  UNL1       -0.0018
     25 C         141.7638  137.8658  163.7065 C.ar    1  UNL1        0.0316
     26 C         142.8220  138.5148  162.8646 C.ar    1  UNL1        0.1674
     27 F         142.8135  138.3307  161.3759 F       1  UNL1       -0.2018
     28 C         143.8887  139.3478  163.5112 C.ar    1  UNL1        0.1671
     29 F         144.9469  139.9968  162.6693 F       1  UNL1       -0.2018
     30 C         143.8971  139.5318  164.9998 C.ar    1  UNL1        0.0277
@<TRIPOS>BOND
     1    14    15    1
     2    15    16    2
     3    15    17    2
     4    15    12    1
     5    12     6    1
     6     6     7   ar
     7     7     8   ar
     8     8     9   ar
     9     9     5    1
    10     5     4    1
    11     4     1    1
    12     1     2    1
    13     1    18    1
    14    18    19    1
    15    19    21    1
    16    21    22    1
    17    22    23    1
    18    23    24   ar
    19    24    25   ar
    20    25    26   ar
    21    26    27    1
    22    26    28   ar
    23    28    29    1
    24    28    30   ar
    25     9    10   ar
    26    10    11   ar
    27    11     6   ar
    28    30    23   ar
    29    12    13    1
    30     2     3    1
    31    19    20    1
@<TRIPOS>MOLECULE
*****
 30 31 0 0 0
SMALL
GASTEIGER

@<TRIPOS>ATOM
      1 C         143.1959  144.4442  163.6439 C.3     1  UNL1        0.1697
      2 O         143.6184  145.2788  162.4713 O.3     1  UNL1       -0.3793
      3 H         144.5498  145.5303  162.5723 H       1  UNL1        0.2106
      4 C         141.7910  143.9253  163.7277 C.3     1  UNL1        0.2358
      5 O         141.5395  142.4477  163.7862 O.3     1  UNL1       -0.4728
      6 C         139.9600  140.5820  167.5643 C.ar    1  UNL1        0.0646
      7 C         139.3495  140.2276  166.2407 C.ar    1  UNL1        0.0190
      8 C         139.8761  140.8495  164.9814 C.ar    1  UNL1        0.0382
      9 C         141.0130  141.8258  165.0455 C.ar    1  UNL1        0.1388
     10 C         141.6234  142.1802  166.3691 C.ar    1  UNL1        0.0382
     11 C         141.0969  141.5582  167.6284 C.ar    1  UNL1        0.0190
     12 N         139.4334  139.9601  168.8236 N.pl3   1  UNL1       -0.2187
     13 H         138.7044  139.3000  168.7791 H       1  UNL1        0.1734
     14 C         140.6020  140.7277  171.4779 C.3     1  UNL1        0.1996
     15 S         140.0177  140.3439  170.1507 S.O2    1  UNL1        0.0558
     16 O         141.0452  139.2600  170.0118 O.2     1  UNL1       -0.1544
     17 O         138.9901  141.4277  170.2896 O.2     1  UNL1       -0.1544
     18 C         144.1782  144.1286  164.7327 C.3     1  UNL1        0.1021
     19 N         144.6872  142.7276  164.9006 N.3     1  UNL1       -0.2951
     20 H         143.9519  142.2018  165.3731 H       1  UNL1        0.1233
     21 C         145.0880  141.9261  163.6978 C.3     1  UNL1        0.0734
     22 C         145.2868  140.4440  163.8163 C.3     1  UNL1        0.0435
     23 C         144.1148  139.5500  164.0943 C.ar    1  UNL1       -0.0184
     24 C         143.7104  139.2619  165.5097 C.ar    1  UNL1       -0.0018
     25 C         142.5385  138.3679  165.7877 C.ar    1  UNL1        0.0316
     26 C         141.7710  137.7620  164.6503 C.ar    1  UNL1        0.1674
     27 F         140.5990  136.8679  164.9283 F       1  UNL1       -0.2018
     28 C         142.1753  138.0501  163.2349 C.ar    1  UNL1        0.1671
     29 F         141.4078  137.4442  162.0974 F       1  UNL1       -0.2018
     30 C         143.3472  138.9441  162.9569 C.ar    1  UNL1        0.0277
@<TRIPOS>BOND
     1    14    15    1
     2    15    16    2
     3    15    17    2
     4    15    12    1
     5    12     6    1
     6     6     7   ar
     7     7     8   ar
     8     8     9   ar
     9     9     5    1
    10     5     4    1
    11     4     1    1
    12     1     2    1
    13     1    18    1
    14    18    19    1
    15    19    21    1
    16    21    22    1
    17    22    23    1
    18    23    24   ar
    19    24    25   ar
    20    25    26   ar
    21    26    27    1
    22    26    28   ar
    23    28    29    1
    24    28    30   ar
    25     9    10   ar
    26    10    11   ar
    27    11     6   ar
    28    30    23   ar
    29    12    13    1
    30     2     3    1
    31    19    20    1
@<TRIPOS>MOLECULE
*****
 30 31 0 0 0
SMALL
GASTEIGER

@<TRIPOS>ATOM
      1 C         145.0822  141.7204  162.7919 C.3     1  UNL1        0.1697
      2 O         146.5229  141.8293  163.1950 O.3     1  UNL1       -0.3793
      3 H         146.9235  142.5976  162.7589 H       1  UNL1        0.2106
      4 C         144.2339  140.6080  163.3332 C.3     1  UNL1        0.2358
      5 O         142.7539  140.7990  163.4847 O.3     1  UNL1       -0.4728
      6 C         141.0623  142.2632  167.3891 C.ar    1  UNL1        0.0646
      7 C         142.5376  142.3483  167.1320 C.ar    1  UNL1        0.0190
      8 C         143.1015  141.8602  165.8306 C.ar    1  UNL1        0.0382
      9 C         142.1900  141.2871  164.7862 C.ar    1  UNL1        0.1388
     10 C         140.7147  141.2021  165.0433 C.ar    1  UNL1        0.0382
     11 C         140.1508  141.6901  166.3447 C.ar    1  UNL1        0.0190
     12 N         140.4984  142.7513  168.6906 N.pl3   1  UNL1       -0.2187
     13 H         139.7402  143.3794  168.6939 H       1  UNL1        0.1734
     14 C         141.6808  141.8136  171.2834 C.3     1  UNL1        0.1996
     15 S         141.0896  142.2825  169.9869 S.O2    1  UNL1        0.0558
     16 O         140.5972  140.8932  169.7091 O.2     1  UNL1       -0.1544
     17 O         141.5820  143.6718  170.2648 O.2     1  UNL1       -0.1544
     18 C         144.4898  142.7240  161.8474 C.3     1  UNL1        0.1021
     19 N         144.3311  144.1531  162.2743 N.3     1  UNL1       -0.2951
     20 H         143.7752  144.6154  161.5548 H       1  UNL1        0.1233
     21 C         143.6893  144.4756  163.5912 C.3     1  UNL1        0.0734
     22 C         142.4309  145.2909  163.6325 C.3     1  UNL1        0.0435
     23 C         141.1012  144.6289  163.4232 C.ar    1  UNL1       -0.0184
     24 C         140.8907  143.7247  162.2451 C.ar    1  UNL1       -0.0018
     25 C         139.5610  143.0628  162.0359 C.ar    1  UNL1        0.0316
     26 C         138.4419  143.3051  163.0047 C.ar    1  UNL1        0.1674
     27 F         137.1121  142.6431  162.7955 F       1  UNL1       -0.2018
     28 C         138.6523  144.2093  164.1829 C.ar    1  UNL1        0.1671
     29 F         137.5332  144.4517  165.1517 F       1  UNL1       -0.2018
     30 C         139.9820  144.8713  164.3921 C.ar    1  UNL1        0.0277
@<TRIPOS>BOND
     1    14    15    1
     2    15    16    2
     3    15    17    2
     4    15    12    1
     5    12     6    1
     6     6     7   ar
     7     7     8   ar
     8     8     9   ar
     9     9     5    1
    10     5     4    1
    11     4     1    1
    12     1     2    1
    13     1    18    1
    14    18    19    1
    15    19    21    1
    16    21    22    1
    17    22    23    1
    18    23    24   ar
    19    24    25   ar
    20    25    26   ar
    21    26    27    1
    22    26    28   ar
    23    28    29    1
    24    28    30   ar
    25     9    10   ar
    26    10    11   ar
    27    11     6   ar
    28    30    23   ar
    29    12    13    1
    30     2     3    1
    31    19    20    1
@<TRIPOS>MOLECULE
*****
 30 31 0 0 0
SMALL
GASTEIGER

@<TRIPOS>ATOM
      1 C         144.9519  140.9939  162.9366 C.3     1  UNL1        0.1697
      2 O         146.1844  141.8470  162.8821 O.3     1  UNL1       -0.3793
      3 H         146.0549  142.5615  162.2390 H       1  UNL1        0.2106
      4 C         144.8970  139.8136  163.8607 C.3     1  UNL1        0.2358
      5 O         143.5979  139.4210  164.4995 O.3     1  UNL1       -0.4728
      6 C         142.4618  141.1124  168.5118 C.ar    1  UNL1        0.0646
      7 C         142.9130  142.0278  167.4125 C.ar    1  UNL1        0.0190
      8 C         143.2917  141.4640  166.0751 C.ar    1  UNL1        0.0382
      9 C         143.2192  139.9848  165.8369 C.ar    1  UNL1        0.1388
     10 C         142.7679  139.0694  166.9362 C.ar    1  UNL1        0.0382
     11 C         142.3892  139.6333  168.2736 C.ar    1  UNL1        0.0190
     12 N         142.0831  141.6762  169.8492 N.pl3   1  UNL1       -0.2187
     13 H         142.4023  141.2438  170.6740 H       1  UNL1        0.1734
     14 C         140.3528  144.1217  170.0107 C.3     1  UNL1        0.1996
     15 S         141.2180  142.8989  169.9300 S.O2    1  UNL1        0.0558
     16 O         140.0996  142.1515  169.2663 O.2     1  UNL1       -0.1544
     17 O         142.3364  143.6464  170.5936 O.2     1  UNL1       -0.1544
     18 C         143.7742  141.3210  162.0671 C.3     1  UNL1        0.1021
     19 N         142.7581  142.3241  162.5269 N.3     1  UNL1       -0.2951
     20 H         142.8330  143.1268  161.9019 H       1  UNL1        0.1233
     21 C         141.3063  141.9507  162.5801 C.3     1  UNL1        0.0734
     22 C         140.5551  142.0433  163.8751 C.3     1  UNL1        0.0435
     23 C         139.9175  140.8186  164.4615 C.ar    1  UNL1       -0.0184
     24 C         139.5339  140.7939  165.9114 C.ar    1  UNL1       -0.0018
     25 C         138.8964  139.5693  166.4977 C.ar    1  UNL1        0.0316
     26 C         138.6426  138.3694  165.6342 C.ar    1  UNL1        0.1674
     27 F         138.0050  137.1447  166.2206 F       1  UNL1       -0.2018
     28 C         139.0262  138.3940  164.1843 C.ar    1  UNL1        0.1671
     29 F         138.7724  137.1941  163.3208 F       1  UNL1       -0.2018
     30 C         139.6637  139.6187  163.5980 C.ar    1  UNL1        0.0277
@<TRIPOS>BOND
     1    14    15    1
     2    15    16    2
     3    15    17    2
     4    15    12    1
     5    12     6    1
     6     6     7   ar
     7     7     8   ar
     8     8     9   ar
     9     9     5    1
    10     5     4    1
    11     4     1    1
    12     1     2    1
    13     1    18    1
    14    18    19    1
    15    19    21    1
    16    21    22    1
    17    22    23    1
    18    23    24   ar
    19    24    25   ar
    20    25    26   ar
    21    26    27    1
    22    26    28   ar
    23    28    29    1
    24    28    30   ar
    25     9    10   ar
    26    10    11   ar
    27    11     6   ar
    28    30    23   ar
    29    12    13    1
    30     2     3    1
    31    19    20    1
@<TRIPOS>MOLECULE
*****
 30 31 0 0 0
SMALL
GASTEIGER

@<TRIPOS>ATOM
      1 C         137.7986  143.1973  162.5054 C.3     1  UNL1        0.1697
      2 O         137.6472  143.1355  161.0144 O.3     1  UNL1       -0.3793
      3 H         138.0040  143.9464  160.6193 H       1  UNL1        0.2106
      4 C         137.3210  142.0575  163.3557 C.3     1  UNL1        0.2358
      5 O         138.2307  140.8982  163.6356 O.3     1  UNL1       -0.4728
      6 C         139.5894  140.0697  167.8449 C.ar    1  UNL1        0.0646
      7 C         140.1588  141.2330  167.0882 C.ar    1  UNL1        0.0190
      8 C         139.7059  141.5091  165.6851 C.ar    1  UNL1        0.0382
      9 C         138.6836  140.6220  165.0387 C.ar    1  UNL1        0.1388
     10 C         138.1142  139.4588  165.7954 C.ar    1  UNL1        0.0382
     11 C         138.5671  139.1826  167.1984 C.ar    1  UNL1        0.0190
     12 N         140.0423  139.7936  169.2479 N.pl3   1  UNL1       -0.2187
     13 H         140.1475  138.8649  169.5575 H       1  UNL1        0.1734
     14 C         140.6275  142.0710  171.1110 C.3     1  UNL1        0.1996
     15 S         140.3349  140.9322  170.1794 S.O2    1  UNL1        0.0558
     16 O         138.8641  141.1782  170.3409 O.2     1  UNL1       -0.1544
     17 O         141.8058  140.6863  170.0180 O.2     1  UNL1       -0.1544
     18 C         138.4276  144.3989  163.1464 C.3     1  UNL1        0.1021
     19 N         139.1000  145.4362  162.2968 N.3     1  UNL1       -0.2951
     20 H         138.7709  146.3442  162.6251 H       1  UNL1        0.1233
     21 C         140.5974  145.5102  162.2481 C.3     1  UNL1        0.0734
     22 C         141.4011  145.2691  163.4915 C.3     1  UNL1        0.0435
     23 C         142.5811  144.3438  163.4541 C.ar    1  UNL1       -0.0184
     24 C         143.0714  143.7022  164.7181 C.ar    1  UNL1       -0.0018
     25 C         144.2514  142.7769  164.6807 C.ar    1  UNL1        0.0316
     26 C         144.9410  142.4932  163.3792 C.ar    1  UNL1        0.1674
     27 F         146.1211  141.5678  163.3419 F       1  UNL1       -0.2018
     28 C         144.4508  143.1348  162.1152 C.ar    1  UNL1        0.1671
     29 F         145.1404  142.8511  160.8137 F       1  UNL1       -0.2018
     30 C         143.2708  144.0601  162.1526 C.ar    1  UNL1        0.0277
@<TRIPOS>BOND
     1    14    15    1
     2    15    16    2
     3    15    17    2
     4    15    12    1
     5    12     6    1
     6     6     7   ar
     7     7     8   ar
     8     8     9   ar
     9     9     5    1
    10     5     4    1
    11     4     1    1
    12     1     2    1
    13     1    18    1
    14    18    19    1
    15    19    21    1
    16    21    22    1
    17    22    23    1
    18    23    24   ar
    19    24    25   ar
    20    25    26   ar
    21    26    27    1
    22    26    28   ar
    23    28    29    1
    24    28    30   ar
    25     9    10   ar
    26    10    11   ar
    27    11     6   ar
    28    30    23   ar
    29    12    13    1
    30     2     3    1
    31    19    20    1
@<TRIPOS>MOLECULE
*****
 30 31 0 0 0
SMALL
GASTEIGER

@<TRIPOS>ATOM
      1 C         139.2901  145.1936  162.5653 C.3     1  UNL1        0.1697
      2 O         139.3703  146.0661  161.3478 O.3     1  UNL1       -0.3793
      3 H         138.4998  146.1077  160.9219 H       1  UNL1        0.2106
      4 C         140.5111  144.9654  163.4062 C.3     1  UNL1        0.2358
      5 O         141.2479  143.6617  163.3205 O.3     1  UNL1       -0.4728
      6 C         141.1796  140.8057  166.7974 C.ar    1  UNL1        0.0646
      7 C         142.1704  140.6131  165.6879 C.ar    1  UNL1        0.0190
      8 C         142.1932  141.5651  164.5289 C.ar    1  UNL1        0.0382
      9 C         141.2251  142.7097  164.4795 C.ar    1  UNL1        0.1388
     10 C         140.2342  142.9024  165.5890 C.ar    1  UNL1        0.0382
     11 C         140.2115  141.9504  166.7479 C.ar    1  UNL1        0.0190
     12 N         141.1568  139.8537  167.9563 N.pl3   1  UNL1       -0.2187
     13 H         141.4179  138.9134  167.8262 H       1  UNL1        0.1734
     14 C         140.3155  140.8149  170.6708 C.3     1  UNL1        0.1996
     15 S         140.7362  140.3343  169.3135 S.O2    1  UNL1        0.0558
     16 O         139.3891  139.7037  169.1194 O.2     1  UNL1       -0.1544
     17 O         142.0832  140.9649  169.5077 O.2     1  UNL1       -0.1544
     18 C         137.9889  144.5493  162.9419 C.3     1  UNL1        0.1021
     19 N         137.4562  143.4052  162.1312 N.3     1  UNL1       -0.2951
     20 H         137.5175  143.6844  161.1521 H       1  UNL1        0.1233
     21 C         138.0930  142.0511  162.2360 C.3     1  UNL1        0.0734
     22 C         137.7428  141.1440  163.3781 C.3     1  UNL1        0.0435
     23 C         138.6195  139.9700  163.6995 C.ar    1  UNL1       -0.0184
     24 C         138.4012  139.1951  164.9652 C.ar    1  UNL1       -0.0018
     25 C         139.2778  138.0212  165.2865 C.ar    1  UNL1        0.0316
     26 C         140.3728  137.6221  164.3422 C.ar    1  UNL1        0.1674
     27 F         141.2495  136.4481  164.6636 F       1  UNL1       -0.2018
     28 C         140.5912  138.3970  163.0765 C.ar    1  UNL1        0.1671
     29 F         141.6862  137.9979  162.1322 F       1  UNL1       -0.2018
     30 C         139.7145  139.5709  162.7552 C.ar    1  UNL1        0.0277
@<TRIPOS>BOND
     1    14    15    1
     2    15    16    2
     3    15    17    2
     4    15    12    1
     5    12     6    1
     6     6     7   ar
     7     7     8   ar
     8     8     9   ar
     9     9     5    1
    10     5     4    1
    11     4     1    1
    12     1     2    1
    13     1    18    1
    14    18    19    1
    15    19    21    1
    16    21    22    1
    17    22    23    1
    18    23    24   ar
    19    24    25   ar
    20    25    26   ar
    21    26    27    1
    22    26    28   ar
    23    28    29    1
    24    28    30   ar
    25     9    10   ar
    26    10    11   ar
    27    11     6   ar
    28    30    23   ar
    29    12    13    1
    30     2     3    1
    31    19    20    1
@<TRIPOS>MOLECULE
*****
 30 31 0 0 0
SMALL
GASTEIGER

@<TRIPOS>ATOM
      1 C         138.4915  141.2918  162.7244 C.3     1  UNL1        0.1697
      2 O         139.9076  141.5625  162.3106 O.3     1  UNL1       -0.3793
      3 H         140.0947  142.5102  162.3990 H       1  UNL1        0.2106
      4 C         137.9512  139.8932  162.6790 C.3     1  UNL1        0.2358
      5 O         138.5890  138.8156  163.5048 O.3     1  UNL1       -0.4728
      6 C         140.0093  139.7221  167.6775 C.ar    1  UNL1        0.0646
      7 C         140.9883  139.6946  166.5414 C.ar    1  UNL1        0.0190
      8 C         140.5149  139.3925  165.1505 C.ar    1  UNL1        0.0382
      9 C         139.0625  139.1178  164.8957 C.ar    1  UNL1        0.1388
     10 C         138.0835  139.1453  166.0318 C.ar    1  UNL1        0.0382
     11 C         138.5569  139.4474  167.4227 C.ar    1  UNL1        0.0190
     12 N         140.4828  140.0242  169.0684 N.pl3   1  UNL1       -0.2187
     13 H         141.0018  139.3535  169.5682 H       1  UNL1        0.1734
     14 C         139.8478  142.6724  170.3269 C.3     1  UNL1        0.1996
     15 S         140.1653  141.3483  169.6976 S.O2    1  UNL1        0.0558
     16 O         139.0663  140.7073  170.4921 O.2     1  UNL1       -0.1544
     17 O         141.2643  141.9893  168.9031 O.2     1  UNL1       -0.1544
     18 C         137.6155  142.4196  163.1835 C.3     1  UNL1        0.1021
     19 N         137.6251  143.7252  162.4449 N.3     1  UNL1       -0.2951
     20 H         136.6794  144.1031  162.5029 H       1  UNL1        0.1233
     21 C         138.5563  144.8211  162.8710 C.3     1  UNL1        0.0734
     22 C         139.1848  144.7843  164.2325 C.3     1  UNL1        0.0435
     23 C         140.6253  144.3940  164.3832 C.ar    1  UNL1       -0.0184
     24 C         140.9989  143.2218  165.2413 C.ar    1  UNL1       -0.0018
     25 C         142.4394  142.8316  165.3920 C.ar    1  UNL1        0.0316
     26 C         143.5062  143.6135  164.6846 C.ar    1  UNL1        0.1674
     27 F         144.9468  143.2232  164.8354 F       1  UNL1       -0.2018
     28 C         143.1326  144.7857  163.8265 C.ar    1  UNL1        0.1671
     29 F         144.1995  145.5676  163.1191 F       1  UNL1       -0.2018
     30 C         141.6922  145.1759  163.6758 C.ar    1  UNL1        0.0277
@<TRIPOS>BOND
     1    14    15    1
     2    15    16    2
     3    15    17    2
     4    15    12    1
     5    12     6    1
     6     6     7   ar
     7     7     8   ar
     8     8     9   ar
     9     9     5    1
    10     5     4    1
    11     4     1    1
    12     1     2    1
    13     1    18    1
    14    18    19    1
    15    19    21    1
    16    21    22    1
    17    22    23    1
    18    23    24   ar
    19    24    25   ar
    20    25    26   ar
    21    26    27    1
    22    26    28   ar
    23    28    29    1
    24    28    30   ar
    25     9    10   ar
    26    10    11   ar
    27    11     6   ar
    28    30    23   ar
    29    12    13    1
    30     2     3    1
    31    19    20    1
@<TRIPOS>MOLECULE
*****
 30 31 0 0 0
SMALL
GASTEIGER

@<TRIPOS>ATOM
      1 C         138.3162  139.0547  162.2172 C.3     1  UNL1        0.1697
      2 O         137.8277  137.6913  161.8269 O.3     1  UNL1       -0.3793
      3 H         136.9902  137.7738  161.3444 H       1  UNL1        0.2106
      4 C         139.6004  139.2018  162.9783 C.3     1  UNL1        0.2358
      5 O         139.8687  138.3335  164.1716 O.3     1  UNL1       -0.4728
      6 C         140.8200  140.2083  168.1503 C.ar    1  UNL1        0.0646
      7 C         139.3932  140.0675  167.7095 C.ar    1  UNL1        0.0190
      8 C         139.0761  139.4425  166.3833 C.ar    1  UNL1        0.0382
      9 C         140.1858  138.9584  165.4978 C.ar    1  UNL1        0.1388
     10 C         141.6126  139.0993  165.9386 C.ar    1  UNL1        0.0382
     11 C         141.9297  139.7242  167.2648 C.ar    1  UNL1        0.0190
     12 N         141.1371  140.8333  169.4765 N.pl3   1  UNL1       -0.2187
     13 H         141.5885  140.3052  170.1741 H       1  UNL1        0.1734
     14 C         140.3958  143.6922  170.0032 C.3     1  UNL1        0.1996
     15 S         140.7664  142.2627  169.7398 S.O2    1  UNL1        0.0558
     16 O         139.7192  141.8116  170.7144 O.2     1  UNL1       -0.1544
     17 O         141.8137  142.7137  168.7653 O.2     1  UNL1       -0.1544
     18 C         137.5206  140.2711  161.8465 C.3     1  UNL1        0.1021
     19 N         136.9172  141.1283  162.9195 N.3     1  UNL1       -0.2951
     20 H         136.9601  140.5904  163.7850 H       1  UNL1        0.1233
     21 C         137.5010  142.4772  163.2186 C.3     1  UNL1        0.0734
     22 C         138.2889  142.6912  164.4770 C.3     1  UNL1        0.0435
     23 C         139.6729  143.2656  164.4068 C.ar    1  UNL1       -0.0184
     24 C         139.9343  144.4940  163.5867 C.ar    1  UNL1       -0.0018
     25 C         141.3182  145.0684  163.5165 C.ar    1  UNL1        0.0316
     26 C         142.4406  144.4143  164.2664 C.ar    1  UNL1        0.1674
     27 F         143.8245  144.9888  164.1962 F       1  UNL1       -0.2018
     28 C         142.1791  143.1859  165.0865 C.ar    1  UNL1        0.1671
     29 F         143.3016  142.5318  165.8364 F       1  UNL1       -0.2018
     30 C         140.7953  142.6115  165.1567 C.ar    1  UNL1        0.0277
@<TRIPOS>BOND
     1    14    15    1
     2    15    16    2
     3    15    17    2
     4    15    12    1
     5    12     6    1
     6     6     7   ar
     7     7     8   ar
     8     8     9   ar
     9     9     5    1
    10     5     4    1
    11     4     1    1
    12     1     2    1
    13     1    18    1
    14    18    19    1
    15    19    21    1
    16    21    22    1
    17    22    23    1
    18    23    24   ar
    19    24    25   ar
    20    25    26   ar
    21    26    27    1
    22    26    28   ar
    23    28    29    1
    24    28    30   ar
    25     9    10   ar
    26    10    11   ar
    27    11     6   ar
    28    30    23   ar
    29    12    13    1
    30     2     3    1
    31    19    20    1
