@<TRIPOS>MOLECULE
*****
 32 36 0 0 0
SMALL
GASTEIGER

@<TRIPOS>ATOM
      1 N         142.0675  138.2766  163.3916 N.3     1  UNL1       -0.2719
      2 C         143.2674  138.3828  162.4977 C.3     1  UNL1        0.0722
      3 C         144.1028  139.5324  162.9779 C.3     1  UNL1        0.0190
      4 C         143.4192  140.1367  164.1685 C.3     1  UNL1        0.0201
      5 C         144.4423  141.2067  164.4103 C.3     1  UNL1        0.0061
      6 C         143.2424  141.1006  165.3041 C.3     1  UNL1        0.0237
      7 C         142.1613  139.3606  164.4241 C.3     1  UNL1        0.0724
      8 C         142.4475  141.5957  166.4758 C.ar    1  UNL1       -0.0225
      9 C         141.1758  142.3588  166.2508 C.ar    1  UNL1       -0.0043
     10 C         140.3810  142.8540  167.4225 C.ar    1  UNL1        0.0035
     11 C         140.8578  142.5861  168.8193 C.ar    1  UNL1        0.0714
     12 C         142.1294  141.8230  169.0443 C.ar    1  UNL1        0.0035
     13 C         142.9243  141.3278  167.8726 C.ar    1  UNL1       -0.0043
     14 C         140.0629  143.0813  169.9910 C.3     1  UNL1        0.4186
     15 F         139.2679  143.5764  171.1628 F       1  UNL1       -0.1659
     16 F         140.8364  144.3663  169.9726 F       1  UNL1       -0.1659
     17 F         139.2894  141.7962  170.0093 F       1  UNL1       -0.1659
     18 C         140.9670  137.2642  163.2736 C.3     1  UNL1        0.0843
     19 C         139.5415  137.7162  163.1574 C.3     1  UNL1        0.0824
     20 S         139.0927  138.4789  161.9461 S.3     1  UNL1       -0.0742
     21 C         138.7741  142.3470  161.9813 C.ar    1  UNL1        0.2029
     22 N         137.4423  141.9413  162.5398 N.ar    1  UNL1       -0.1250
     23 N         137.3995  140.4429  162.5946 N.ar    1  UNL1       -0.1220
     24 C         138.7049  139.9225  162.0700 C.ar    1  UNL1        0.1933
     25 N         139.5544  141.0993  161.6910 N.ar    1  UNL1       -0.2859
     26 C         140.9408  141.0389  161.1216 C.3     1  UNL1        0.1341
     27 C         139.0334  144.6748  164.2538 C.3     1  UNL1        0.0556
     28 C         139.3623  144.8234  162.7978 C.ar    1  UNL1        0.1001
     29 N         139.8682  146.0680  162.1308 N.ar    1  UNL1       -0.2085
     30 C         140.0616  145.7672  160.6739 C.ar    1  UNL1        0.2849
     31 O         139.6753  144.3367  160.4407 O.2     1  UNL1       -0.4283
     32 C         139.2431  143.7534  161.7533 C.ar    1  UNL1        0.1964
@<TRIPOS>BOND
     1    27    28    1
     2    28    29   ar
     3    29    30   ar
     4    30    31   ar
     5    31    32   ar
     6    32    21    1
     7    21    22   ar
     8    22    23   ar
     9    23    24   ar
    10    24    20    1
    11    20    19    1
    12    19    18    1
    13    18     1    1
    14     1     2    1
    15     2     3    1
    16     4     3    1
    17     4     5    1
    18     5     6    1
    19     6     8    1
    20     8     9   ar
    21     9    10   ar
    22    10    11   ar
    23    11    14    1
    24    14    15    1
    25    14    16    1
    26    14    17    1
    27    11    12   ar
    28    12    13   ar
    29     4     7    1
    30    24    25   ar
    31    25    26    1
    32    32    28   ar
    33    25    21   ar
    34     7     1    1
    35     6     4    1
    36    13     8   ar
@<TRIPOS>MOLECULE
*****
 32 36 0 0 0
SMALL
GASTEIGER

@<TRIPOS>ATOM
      1 N         137.9986  141.5548  162.5498 N.3     1  UNL1       -0.2719
      2 C         137.5668  140.5485  161.5247 C.3     1  UNL1        0.0722
      3 C         137.9737  139.1888  162.0100 C.3     1  UNL1        0.0190
      4 C         138.6570  139.3547  163.3350 C.3     1  UNL1        0.0201
      5 C         138.9332  137.8965  163.5528 C.3     1  UNL1        0.0061
      6 C         139.3650  138.9029  164.5778 C.3     1  UNL1        0.0237
      7 C         138.6724  140.8171  163.6686 C.3     1  UNL1        0.0724
      8 C         140.0230  139.2231  165.8872 C.ar    1  UNL1       -0.0225
      9 C         141.5076  139.0699  166.0378 C.ar    1  UNL1       -0.0043
     10 C         142.1656  139.3900  167.3472 C.ar    1  UNL1        0.0035
     11 C         141.3391  139.8634  168.5060 C.ar    1  UNL1        0.0714
     12 C         139.8545  140.0166  168.3554 C.ar    1  UNL1        0.0035
     13 C         139.1965  139.6964  167.0460 C.ar    1  UNL1       -0.0043
     14 C         141.9971  140.1835  169.8153 C.3     1  UNL1        0.4186
     15 F         142.6552  140.5037  171.1247 F       1  UNL1       -0.1659
     16 F         140.7335  139.8226  170.5386 F       1  UNL1       -0.1659
     17 F         143.2606  140.5445  169.0921 F       1  UNL1       -0.1659
     18 C         137.7928  143.0385  162.4701 C.3     1  UNL1        0.0843
     19 C         137.6786  143.8485  163.7274 C.3     1  UNL1        0.0824
     20 S         138.8780  144.5704  164.2662 S.3     1  UNL1       -0.0742
     21 C         142.2363  142.6502  164.5831 C.ar    1  UNL1        0.2029
     22 N         141.7238  142.5722  165.9908 N.ar    1  UNL1       -0.1250
     23 N         140.4034  143.2820  166.0434 N.ar    1  UNL1       -0.1220
     24 C         140.0998  143.7987  164.6683 C.ar    1  UNL1        0.1933
     25 N         141.2325  143.4083  163.7659 N.ar    1  UNL1       -0.2859
     26 C         141.3424  143.7209  162.3029 C.3     1  UNL1        0.1341
     27 C         142.5424  140.0526  162.6317 C.3     1  UNL1        0.0556
     28 C         143.6667  140.8778  163.1840 C.ar    1  UNL1        0.1001
     29 N         145.1290  140.6538  162.9364 N.ar    1  UNL1       -0.2085
     30 C         145.8921  141.7095  163.6804 C.ar    1  UNL1        0.2849
     31 O         144.9013  142.5858  164.3878 O.2     1  UNL1       -0.4283
     32 C         143.5260  142.0718  164.0810 C.ar    1  UNL1        0.1964
@<TRIPOS>BOND
     1    27    28    1
     2    28    29   ar
     3    29    30   ar
     4    30    31   ar
     5    31    32   ar
     6    32    21    1
     7    21    22   ar
     8    22    23   ar
     9    23    24   ar
    10    24    20    1
    11    20    19    1
    12    19    18    1
    13    18     1    1
    14     1     2    1
    15     2     3    1
    16     4     3    1
    17     4     5    1
    18     5     6    1
    19     6     8    1
    20     8     9   ar
    21     9    10   ar
    22    10    11   ar
    23    11    14    1
    24    14    15    1
    25    14    16    1
    26    14    17    1
    27    11    12   ar
    28    12    13   ar
    29     4     7    1
    30    24    25   ar
    31    25    26    1
    32    32    28   ar
    33    25    21   ar
    34     7     1    1
    35     6     4    1
    36    13     8   ar
@<TRIPOS>MOLECULE
*****
 32 36 0 0 0
SMALL
GASTEIGER

@<TRIPOS>ATOM
      1 N         141.4793  138.1331  163.3769 N.3     1  UNL1       -0.2719
      2 C         140.1972  137.4642  162.9785 C.3     1  UNL1        0.0722
      3 C         139.1620  137.7929  164.0130 C.3     1  UNL1        0.0190
      4 C         139.8043  138.6649  165.0508 C.3     1  UNL1        0.0201
      5 C         138.5813  138.8180  165.9058 C.3     1  UNL1        0.0061
      6 C         139.8635  139.4869  166.3042 C.3     1  UNL1        0.0237
      7 C         141.2365  138.8752  164.6577 C.3     1  UNL1        0.0724
      8 C         140.6379  140.3476  167.2578 C.ar    1  UNL1       -0.0225
      9 C         140.2520  141.7837  167.4547 C.ar    1  UNL1       -0.0043
     10 C         141.0264  142.6445  168.4083 C.ar    1  UNL1        0.0035
     11 C         142.1867  142.0691  169.1650 C.ar    1  UNL1        0.0714
     12 C         142.5725  140.6330  168.9682 C.ar    1  UNL1        0.0035
     13 C         141.7981  139.7723  168.0145 C.ar    1  UNL1       -0.0043
     14 C         142.9611  142.9298  170.1186 C.3     1  UNL1        0.4186
     15 F         143.7355  143.7906  171.0723 F       1  UNL1       -0.1659
     16 F         141.8085  143.8871  170.1905 F       1  UNL1       -0.1659
     17 F         144.1136  141.9725  170.0468 F       1  UNL1       -0.1659
     18 C         142.7765  138.0708  162.6263 C.3     1  UNL1        0.0843
     19 C         143.8172  139.1300  162.8384 C.3     1  UNL1        0.0824
     20 S         144.1715  140.0677  161.7224 S.3     1  UNL1       -0.0742
     21 C         142.4817  143.5563  161.9202 C.ar    1  UNL1        0.2029
     22 N         143.9326  143.9335  161.9731 N.ar    1  UNL1       -0.1250
     23 N         144.7422  142.6726  161.9054 N.ar    1  UNL1       -0.1220
     24 C         143.7917  141.5161  161.8107 C.ar    1  UNL1        0.1933
     25 N         142.3947  142.0622  161.8199 N.ar    1  UNL1       -0.2859
     26 C         141.1322  141.2559  161.7423 C.3     1  UNL1        0.1341
     27 C         140.3951  143.9315  164.4011 C.3     1  UNL1        0.0556
     28 C         140.3625  144.6789  163.1009 C.ar    1  UNL1        0.1001
     29 N         139.3652  145.7299  162.7129 N.ar    1  UNL1       -0.2085
     30 C         139.7079  146.2070  161.3326 C.ar    1  UNL1        0.2849
     31 O         140.9171  145.4508  160.8677 O.2     1  UNL1       -0.4283
     32 C         141.3217  144.5064  161.9606 C.ar    1  UNL1        0.1964
@<TRIPOS>BOND
     1    27    28    1
     2    28    29   ar
     3    29    30   ar
     4    30    31   ar
     5    31    32   ar
     6    32    21    1
     7    21    22   ar
     8    22    23   ar
     9    23    24   ar
    10    24    20    1
    11    20    19    1
    12    19    18    1
    13    18     1    1
    14     1     2    1
    15     2     3    1
    16     4     3    1
    17     4     5    1
    18     5     6    1
    19     6     8    1
    20     8     9   ar
    21     9    10   ar
    22    10    11   ar
    23    11    14    1
    24    14    15    1
    25    14    16    1
    26    14    17    1
    27    11    12   ar
    28    12    13   ar
    29     4     7    1
    30    24    25   ar
    31    25    26    1
    32    32    28   ar
    33    25    21   ar
    34     7     1    1
    35     6     4    1
    36    13     8   ar
@<TRIPOS>MOLECULE
*****
 32 36 0 0 0
SMALL
GASTEIGER

@<TRIPOS>ATOM
      1 N         142.5084  143.2729  161.7276 N.3     1  UNL1       -0.2719
      2 C         143.7981  143.2566  160.9619 C.3     1  UNL1        0.0722
      3 C         144.8200  142.5361  161.7904 C.3     1  UNL1        0.0190
      4 C         144.1619  142.1070  163.0683 C.3     1  UNL1        0.0201
      5 C         145.3744  141.4473  163.6553 C.3     1  UNL1        0.0061
      6 C         144.0846  141.4636  164.4211 C.3     1  UNL1        0.0237
      7 C         142.7332  142.5624  163.0294 C.3     1  UNL1        0.0724
      8 C         143.2955  141.1015  165.6442 C.ar    1  UNL1       -0.0225
      9 C         143.1390  142.0950  166.7571 C.ar    1  UNL1       -0.0043
     10 C         142.3498  141.7329  167.9802 C.ar    1  UNL1        0.0035
     11 C         141.7171  140.3774  168.0904 C.ar    1  UNL1        0.0714
     12 C         141.8736  139.3839  166.9775 C.ar    1  UNL1        0.0035
     13 C         142.6628  139.7460  165.7544 C.ar    1  UNL1       -0.0043
     14 C         140.9279  140.0153  169.3136 C.3     1  UNL1        0.4186
     15 F         140.1386  139.6532  170.5367 F       1  UNL1       -0.1659
     16 F         142.0136  139.0696  169.7341 F       1  UNL1       -0.1659
     17 F         139.8422  140.9610  168.8930 F       1  UNL1       -0.1659
     18 C         141.2200  143.8911  161.2717 C.3     1  UNL1        0.0843
     19 C         140.5426  144.9255  162.1208 C.3     1  UNL1        0.0824
     20 S         139.1563  144.6804  162.6386 S.3     1  UNL1       -0.0742
     21 C         138.2662  141.0383  163.6427 C.ar    1  UNL1        0.2029
     22 N         137.4659  141.1958  162.3838 N.ar    1  UNL1       -0.1250
     23 N         137.7019  142.5793  161.8544 N.ar    1  UNL1       -0.1220
     24 C         138.6481  143.2769  162.7861 C.ar    1  UNL1        0.1933
     25 N         138.9968  142.3246  163.8913 N.ar    1  UNL1       -0.2859
     26 C         139.9150  142.6086  165.0431 C.3     1  UNL1        0.1341
     27 C         139.4088  138.1181  162.7391 C.3     1  UNL1        0.0556
     28 C         138.8506  138.4680  164.0867 C.ar    1  UNL1        0.1001
     29 N         138.7196  137.5371  165.2556 N.ar    1  UNL1       -0.2085
     30 C         138.1134  138.3041  166.3933 C.ar    1  UNL1        0.2849
     31 O         137.8698  139.7090  165.9276 O.2     1  UNL1       -0.4283
     32 C         138.3254  139.8103  164.5021 C.ar    1  UNL1        0.1964
@<TRIPOS>BOND
     1    27    28    1
     2    28    29   ar
     3    29    30   ar
     4    30    31   ar
     5    31    32   ar
     6    32    21    1
     7    21    22   ar
     8    22    23   ar
     9    23    24   ar
    10    24    20    1
    11    20    19    1
    12    19    18    1
    13    18     1    1
    14     1     2    1
    15     2     3    1
    16     4     3    1
    17     4     5    1
    18     5     6    1
    19     6     8    1
    20     8     9   ar
    21     9    10   ar
    22    10    11   ar
    23    11    14    1
    24    14    15    1
    25    14    16    1
    26    14    17    1
    27    11    12   ar
    28    12    13   ar
    29     4     7    1
    30    24    25   ar
    31    25    26    1
    32    32    28   ar
    33    25    21   ar
    34     7     1    1
    35     6     4    1
    36    13     8   ar
@<TRIPOS>MOLECULE
*****
 32 36 0 0 0
SMALL
GASTEIGER

@<TRIPOS>ATOM
      1 N         143.5899  143.6378  163.6527 N.3     1  UNL1       -0.2719
      2 C         143.3767  145.1053  163.4265 C.3     1  UNL1        0.0722
      3 C         141.9548  145.4268  163.7796 C.3     1  UNL1        0.0190
      4 C         141.2892  144.1581  164.2240 C.3     1  UNL1        0.0201
      5 C         139.9478  144.7718  164.4961 C.3     1  UNL1        0.0061
      6 C         140.1610  143.3043  164.7223 C.3     1  UNL1        0.0237
      7 C         142.2998  143.0525  164.1456 C.3     1  UNL1        0.0724
      8 C         139.6328  141.9642  165.1406 C.ar    1  UNL1       -0.0225
      9 C         138.5309  141.3145  164.3571 C.ar    1  UNL1       -0.0043
     10 C         138.0027  139.9744  164.7754 C.ar    1  UNL1        0.0035
     11 C         138.5764  139.2839  165.9771 C.ar    1  UNL1        0.0714
     12 C         139.6783  139.9336  166.7606 C.ar    1  UNL1        0.0035
     13 C         140.2065  141.2737  166.3423 C.ar    1  UNL1       -0.0043
     14 C         138.0482  137.9438  166.3954 C.3     1  UNL1        0.4186
     15 F         137.5199  136.6036  166.8137 F       1  UNL1       -0.1659
     16 F         138.9745  137.2753  165.4233 F       1  UNL1       -0.1659
     17 F         137.1219  138.6123  167.3675 F       1  UNL1       -0.1659
     18 C         144.8688  142.8874  163.4258 C.3     1  UNL1        0.0843
     19 C         145.2004  141.6966  164.2754 C.3     1  UNL1        0.0824
     20 S         144.9201  140.3126  163.7693 S.3     1  UNL1       -0.0742
     21 C         141.5485  139.6612  161.9600 C.ar    1  UNL1        0.2029
     22 N         141.2652  139.0870  163.3166 N.ar    1  UNL1       -0.1250
     23 N         142.4937  139.2612  164.1594 N.ar    1  UNL1       -0.1220
     24 C         143.5363  139.9429  163.3238 C.ar    1  UNL1        0.1933
     25 N         142.9522  140.1901  161.9646 N.ar    1  UNL1       -0.2859
     26 C         143.6493  140.8504  160.8121 C.3     1  UNL1        0.1341
     27 C         139.8090  142.2472  160.9924 C.3     1  UNL1        0.0556
     28 C         139.7960  140.8882  160.3575 C.ar    1  UNL1        0.1001
     29 N         138.9811  140.4793  159.1663 N.ar    1  UNL1       -0.2085
     30 C         139.2771  139.0379  158.8750 C.ar    1  UNL1        0.2849
     31 O         140.2749  138.5560  159.8860 O.2     1  UNL1       -0.4283
     32 C         140.5956  139.6995  160.8022 C.ar    1  UNL1        0.1964
@<TRIPOS>BOND
     1    27    28    1
     2    28    29   ar
     3    29    30   ar
     4    30    31   ar
     5    31    32   ar
     6    32    21    1
     7    21    22   ar
     8    22    23   ar
     9    23    24   ar
    10    24    20    1
    11    20    19    1
    12    19    18    1
    13    18     1    1
    14     1     2    1
    15     2     3    1
    16     4     3    1
    17     4     5    1
    18     5     6    1
    19     6     8    1
    20     8     9   ar
    21     9    10   ar
    22    10    11   ar
    23    11    14    1
    24    14    15    1
    25    14    16    1
    26    14    17    1
    27    11    12   ar
    28    12    13   ar
    29     4     7    1
    30    24    25   ar
    31    25    26    1
    32    32    28   ar
    33    25    21   ar
    34     7     1    1
    35     6     4    1
    36    13     8   ar
@<TRIPOS>MOLECULE
*****
 32 36 0 0 0
SMALL
GASTEIGER

@<TRIPOS>ATOM
      1 N         142.4148  138.2797  163.0624 N.3     1  UNL1       -0.2719
      2 C         141.2436  137.4905  162.5571 C.3     1  UNL1        0.0722
      3 C         140.1181  137.6538  163.5350 C.3     1  UNL1        0.0190
      4 C         140.5936  138.5440  164.6448 C.3     1  UNL1        0.0201
      5 C         139.3126  138.5201  165.4248 C.3     1  UNL1        0.0061
      6 C         140.4838  139.3093  165.9302 C.3     1  UNL1        0.0237
      7 C         142.0131  138.9308  164.3527 C.3     1  UNL1        0.0724
      8 C         141.0967  140.2068  166.9640 C.ar    1  UNL1       -0.0225
      9 C         140.6469  141.6331  167.0806 C.ar    1  UNL1       -0.0043
     10 C         141.2598  142.5306  168.1145 C.ar    1  UNL1        0.0035
     11 C         142.3223  142.0018  169.0317 C.ar    1  UNL1        0.0714
     12 C         142.7721  140.5756  168.9151 C.ar    1  UNL1        0.0035
     13 C         142.1593  139.6781  167.8813 C.ar    1  UNL1       -0.0043
     14 C         142.9352  142.8994  170.0656 C.3     1  UNL1        0.4186
     15 F         143.5480  143.7969  171.0995 F       1  UNL1       -0.1659
     16 F         144.1853  142.0706  170.0440 F       1  UNL1       -0.1659
     17 F         141.6851  143.7281  170.0872 F       1  UNL1       -0.1659
     18 C         143.7529  138.3973  162.3948 C.3     1  UNL1        0.0843
     19 C         143.8446  138.8861  160.9796 C.3     1  UNL1        0.0824
     20 S         143.6892  140.3475  160.6793 S.3     1  UNL1       -0.0742
     21 C         141.2840  142.4214  162.9108 C.ar    1  UNL1        0.2029
     22 N         142.6178  142.8415  163.4536 N.ar    1  UNL1       -0.1250
     23 N         143.6811  142.1158  162.6838 N.ar    1  UNL1       -0.1220
     24 C         143.0046  141.2471  161.6651 C.ar    1  UNL1        0.1933
     25 N         141.5231  141.4359  161.8054 N.ar    1  UNL1       -0.2859
     26 C         140.4662  140.7584  160.9844 C.3     1  UNL1        0.1341
     27 C         140.1057  145.4475  162.5884 C.3     1  UNL1        0.0556
     28 C         139.4045  144.2931  163.2411 C.ar    1  UNL1        0.1001
     29 N         138.0387  144.3271  163.8602 N.ar    1  UNL1       -0.2085
     30 C         137.7362  142.9571  164.3909 C.ar    1  UNL1        0.2849
     31 O         138.9151  142.0765  164.0999 O.2     1  UNL1       -0.4283
     32 C         139.9462  142.9022  163.3892 C.ar    1  UNL1        0.1964
@<TRIPOS>BOND
     1    27    28    1
     2    28    29   ar
     3    29    30   ar
     4    30    31   ar
     5    31    32   ar
     6    32    21    1
     7    21    22   ar
     8    22    23   ar
     9    23    24   ar
    10    24    20    1
    11    20    19    1
    12    19    18    1
    13    18     1    1
    14     1     2    1
    15     2     3    1
    16     4     3    1
    17     4     5    1
    18     5     6    1
    19     6     8    1
    20     8     9   ar
    21     9    10   ar
    22    10    11   ar
    23    11    14    1
    24    14    15    1
    25    14    16    1
    26    14    17    1
    27    11    12   ar
    28    12    13   ar
    29     4     7    1
    30    24    25   ar
    31    25    26    1
    32    32    28   ar
    33    25    21   ar
    34     7     1    1
    35     6     4    1
    36    13     8   ar
@<TRIPOS>MOLECULE
*****
 32 36 0 0 0
SMALL
GASTEIGER

@<TRIPOS>ATOM
      1 N         138.1947  141.2864  163.1701 N.3     1  UNL1       -0.2719
      2 C         137.7200  142.5539  162.5236 C.3     1  UNL1        0.0722
      3 C         138.2319  143.7075  163.3342 C.3     1  UNL1        0.0190
      4 C         139.0230  143.1530  164.4817 C.3     1  UNL1        0.0201
      5 C         139.3854  144.4806  165.0785 C.3     1  UNL1        0.0061
      6 C         139.8601  143.2130  165.7250 C.3     1  UNL1        0.0237
      7 C         139.0000  141.6566  164.3803 C.3     1  UNL1        0.0724
      8 C         140.6174  142.5159  166.8160 C.ar    1  UNL1       -0.0225
      9 C         140.2373  142.7342  168.2505 C.ar    1  UNL1       -0.0043
     10 C         140.9946  142.0370  169.3416 C.ar    1  UNL1        0.0035
     11 C         142.1321  141.1216  168.9981 C.ar    1  UNL1        0.0714
     12 C         142.5123  140.9033  167.5635 C.ar    1  UNL1        0.0035
     13 C         141.7549  141.6004  166.4725 C.ar    1  UNL1       -0.0043
     14 C         142.8895  140.4244  170.0891 C.3     1  UNL1        0.4186
     15 F         143.6468  139.7272  171.1802 F       1  UNL1       -0.1659
     16 F         143.9146  141.5194  170.0771 F       1  UNL1       -0.1659
     17 F         141.8643  139.3295  170.1010 F       1  UNL1       -0.1659
     18 C         137.9135  139.8931  162.6907 C.3     1  UNL1        0.0843
     19 C         137.8041  139.6135  161.2211 C.3     1  UNL1        0.0824
     20 S         139.0119  139.1700  160.4499 S.3     1  UNL1       -0.0742
     21 C         142.4724  139.4798  162.1803 C.ar    1  UNL1        0.2029
     22 N         142.2338  138.0016  162.2718 N.ar    1  UNL1       -0.1250
     23 N         140.9084  137.7057  161.6348 N.ar    1  UNL1       -0.1220
     24 C         140.3279  139.0008  161.1495 C.ar    1  UNL1        0.1933
     25 N         141.2944  140.0972  161.4866 N.ar    1  UNL1       -0.2859
     26 C         141.1147  141.5553  161.1834 C.3     1  UNL1        0.1341
     27 C         143.9892  138.9290  165.0168 C.3     1  UNL1        0.0556
     28 C         144.3745  139.9586  163.9962 C.ar    1  UNL1        0.1001
     29 N         145.5247  140.9158  164.1003 N.ar    1  UNL1       -0.2085
     30 C         145.5383  141.7605  162.8608 C.ar    1  UNL1        0.2849
     31 O         144.3966  141.3254  161.9907 O.2     1  UNL1       -0.4283
     32 C         143.6773  140.2117  162.6924 C.ar    1  UNL1        0.1964
@<TRIPOS>BOND
     1    27    28    1
     2    28    29   ar
     3    29    30   ar
     4    30    31   ar
     5    31    32   ar
     6    32    21    1
     7    21    22   ar
     8    22    23   ar
     9    23    24   ar
    10    24    20    1
    11    20    19    1
    12    19    18    1
    13    18     1    1
    14     1     2    1
    15     2     3    1
    16     4     3    1
    17     4     5    1
    18     5     6    1
    19     6     8    1
    20     8     9   ar
    21     9    10   ar
    22    10    11   ar
    23    11    14    1
    24    14    15    1
    25    14    16    1
    26    14    17    1
    27    11    12   ar
    28    12    13   ar
    29     4     7    1
    30    24    25   ar
    31    25    26    1
    32    32    28   ar
    33    25    21   ar
    34     7     1    1
    35     6     4    1
    36    13     8   ar
@<TRIPOS>MOLECULE
*****
 32 36 0 0 0
SMALL
GASTEIGER

@<TRIPOS>ATOM
      1 N         138.0298  139.9259  162.8859 N.3     1  UNL1       -0.2719
      2 C         138.0430  138.5501  162.2884 C.3     1  UNL1        0.0722
      3 C         138.9847  137.7043  163.0931 C.3     1  UNL1        0.0190
      4 C         139.5536  138.5573  164.1880 C.3     1  UNL1        0.0201
      5 C         140.4140  137.4863  164.7902 C.3     1  UNL1        0.0061
      6 C         140.4009  138.8621  165.3877 C.3     1  UNL1        0.0237
      7 C         138.9634  139.9303  164.0599 C.3     1  UNL1        0.0724
      8 C         140.8824  139.8324  166.4253 C.ar    1  UNL1       -0.0225
      9 C         139.9950  140.2004  167.5773 C.ar    1  UNL1       -0.0043
     10 C         140.4766  141.1706  168.6149 C.ar    1  UNL1        0.0035
     11 C         141.8455  141.7729  168.5005 C.ar    1  UNL1        0.0714
     12 C         142.7330  141.4050  167.3485 C.ar    1  UNL1        0.0035
     13 C         142.2514  140.4347  166.3109 C.ar    1  UNL1       -0.0043
     14 C         142.3271  142.7432  169.5381 C.3     1  UNL1        0.4186
     15 F         142.8087  143.7136  170.5758 F       1  UNL1       -0.1659
     16 F         140.9394  143.2988  169.6626 F       1  UNL1       -0.1659
     17 F         143.7148  142.1877  169.4136 F       1  UNL1       -0.1659
     18 C         137.2244  141.0925  162.3955 C.3     1  UNL1        0.0843
     19 C         137.8211  142.4686  162.3952 C.3     1  UNL1        0.0824
     20 S         138.7966  142.8630  161.3260 S.3     1  UNL1       -0.0742
     21 C         142.3968  141.5359  161.9115 C.ar    1  UNL1        0.2029
     22 N         142.1138  141.0094  160.5356 N.ar    1  UNL1       -0.1250
     23 N         140.7308  141.4425  160.1489 N.ar    1  UNL1       -0.1220
     24 C         140.1589  142.2366  161.2856 C.ar    1  UNL1        0.1933
     25 N         141.1885  142.2944  162.3749 N.ar    1  UNL1       -0.2859
     26 C         141.0365  142.9887  163.6959 C.3     1  UNL1        0.1341
     27 C         143.4590  138.7168  163.1661 C.3     1  UNL1        0.0556
     28 C         144.1535  140.0428  163.2642 C.ar    1  UNL1        0.1001
     29 N         145.4581  140.3058  163.9561 N.ar    1  UNL1       -0.2085
     30 C         145.7760  141.7642  163.8071 C.ar    1  UNL1        0.2849
     31 O         144.6680  142.4025  163.0230 O.2     1  UNL1       -0.4283
     32 C         143.6652  141.3386  162.6875 C.ar    1  UNL1        0.1964
@<TRIPOS>BOND
     1    27    28    1
     2    28    29   ar
     3    29    30   ar
     4    30    31   ar
     5    31    32   ar
     6    32    21    1
     7    21    22   ar
     8    22    23   ar
     9    23    24   ar
    10    24    20    1
    11    20    19    1
    12    19    18    1
    13    18     1    1
    14     1     2    1
    15     2     3    1
    16     4     3    1
    17     4     5    1
    18     5     6    1
    19     6     8    1
    20     8     9   ar
    21     9    10   ar
    22    10    11   ar
    23    11    14    1
    24    14    15    1
    25    14    16    1
    26    14    17    1
    27    11    12   ar
    28    12    13   ar
    29     4     7    1
    30    24    25   ar
    31    25    26    1
    32    32    28   ar
    33    25    21   ar
    34     7     1    1
    35     6     4    1
    36    13     8   ar
@<TRIPOS>MOLECULE
*****
 32 36 0 0 0
SMALL
GASTEIGER

@<TRIPOS>ATOM
      1 N         140.3348  144.5664  163.6767 N.3     1  UNL1       -0.2719
      2 C         141.2373  145.4325  162.8488 C.3     1  UNL1        0.0722
      3 C         142.6541  145.1319  163.2391 C.3     1  UNL1        0.0190
      4 C         142.6272  144.0801  164.3083 C.3     1  UNL1        0.0201
      5 C         144.1146  143.9958  164.4827 C.3     1  UNL1        0.0061
      6 C         143.2121  143.1297  165.3106 C.3     1  UNL1        0.0237
      7 C         141.1938  143.7306  164.5787 C.3     1  UNL1        0.0724
      8 C         143.0287  142.0810  166.3673 C.ar    1  UNL1       -0.0225
      9 C         143.1949  142.4377  167.8148 C.ar    1  UNL1       -0.0043
     10 C         143.0115  141.3890  168.8714 C.ar    1  UNL1        0.0035
     11 C         142.6619  139.9836  168.4806 C.ar    1  UNL1        0.0714
     12 C         142.4958  139.6270  167.0331 C.ar    1  UNL1        0.0035
     13 C         142.6792  140.6757  165.9764 C.ar    1  UNL1       -0.0043
     14 C         142.4786  138.9349  169.5373 C.3     1  UNL1        0.4186
     15 F         142.2951  137.8862  170.5940 F       1  UNL1       -0.1659
     16 F         143.3916  138.0148  168.7826 F       1  UNL1       -0.1659
     17 F         141.5655  139.8551  170.2920 F       1  UNL1       -0.1659
     18 C         138.8363  144.5407  163.6137 C.3     1  UNL1        0.0843
     19 C         138.0752  143.4497  164.3068 C.3     1  UNL1        0.0824
     20 S         137.7359  142.1874  163.5709 S.3     1  UNL1       -0.0742
     21 C         140.5560  139.6589  162.7232 C.ar    1  UNL1        0.2029
     22 N         140.0108  139.0708  163.9909 N.ar    1  UNL1       -0.1250
     23 N         138.8880  139.9464  164.4627 N.ar    1  UNL1       -0.1220
     24 C         138.7393  141.0757  163.4867 C.ar    1  UNL1        0.1933
     25 N         139.7702  140.8980  162.4117 N.ar    1  UNL1       -0.2859
     26 C         139.9786  141.8008  161.2320 C.3     1  UNL1        0.1341
     27 C         143.4790  141.0494  162.3078 C.3     1  UNL1        0.0556
     28 C         143.0318  139.7442  161.7190 C.ar    1  UNL1        0.1001
     29 N         143.8496  138.8491  160.8359 N.ar    1  UNL1       -0.2085
     30 C         143.0115  137.6567  160.4811 C.ar    1  UNL1        0.2849
     31 O         141.6757  137.8149  161.1449 O.2     1  UNL1       -0.4283
     32 C         141.6883  139.1051  161.9099 C.ar    1  UNL1        0.1964
@<TRIPOS>BOND
     1    27    28    1
     2    28    29   ar
     3    29    30   ar
     4    30    31   ar
     5    31    32   ar
     6    32    21    1
     7    21    22   ar
     8    22    23   ar
     9    23    24   ar
    10    24    20    1
    11    20    19    1
    12    19    18    1
    13    18     1    1
    14     1     2    1
    15     2     3    1
    16     4     3    1
    17     4     5    1
    18     5     6    1
    19     6     8    1
    20     8     9   ar
    21     9    10   ar
    22    10    11   ar
    23    11    14    1
    24    14    15    1
    25    14    16    1
    26    14    17    1
    27    11    12   ar
    28    12    13   ar
    29     4     7    1
    30    24    25   ar
    31    25    26    1
    32    32    28   ar
    33    25    21   ar
    34     7     1    1
    35     6     4    1
    36    13     8   ar
