@<TRIPOS>MOLECULE
*****
 30 32 0 0 0
SMALL
GASTEIGER

@<TRIPOS>ATOM
      1 C         139.3823  139.3220  163.7662 C.ar    1  UNL1        0.0519
      2 C         139.7751  138.4354  162.6218 C.ar    1  UNL1        0.0853
      3 C         141.0772  137.6917  162.6619 C.ar    1  UNL1        0.1045
      4 N         141.9864  137.8346  163.8463 N.ar    1  UNL1       -0.2439
      5 C         141.5936  138.7212  164.9906 C.ar    1  UNL1        0.0785
      6 C         142.5029  138.8641  166.1751 C.ar    1  UNL1       -0.0042
      7 C         143.8049  138.1204  166.2151 C.3     1  UNL1        0.0326
      8 C         142.1101  139.7507  167.3195 C.ar    1  UNL1       -0.0027
      9 C         140.8080  140.4944  167.2794 C.ar    1  UNL1        0.0013
     10 C         139.8988  140.3515  166.0950 C.ar    1  UNL1        0.0028
     11 C         140.2916  139.4649  164.9506 C.ar    1  UNL1        0.0306
     12 C         140.4152  141.3810  168.4239 C.ar    1  UNL1        0.0192
     13 C         140.8463  142.8176  168.4419 C.ar    1  UNL1        0.0031
     14 C         140.4536  143.7043  169.5862 C.ar    1  UNL1        0.0207
     15 C         139.6298  143.1543  170.7126 C.ar    1  UNL1        0.0989
     16 N         139.1987  141.7177  170.6946 N.ar    1  UNL1       -0.2423
     17 C         139.5914  140.8310  169.5503 C.ar    1  UNL1        0.0988
     18 C         138.8659  138.2925  161.4374 C.2     1  UNL1        0.2455
     19 N         139.4219  138.3964  160.0482 N.am    1  UNL1       -0.3252
     20 O         137.4006  138.0456  161.6422 O.2     1  UNL1       -0.2703
     21 H         140.3837  138.5584  159.9137 H       1  UNL1        0.1453
     22 H         138.8252  138.3026  159.2708 H       1  UNL1        0.1453
     23 N         138.0803  140.0657  163.7262 N.pl3   1  UNL1       -0.3325
     24 H         137.2992  139.7173  164.2138 H       1  UNL1        0.1468
     25 C         137.9683  141.3402  162.9432 C.3     1  UNL1        0.0870
     26 C         138.6621  142.5798  163.4249 C.3     1  UNL1        0.0195
     27 C         138.9788  144.3503  165.2997 C.3     1  UNL1        0.0001
     28 C         138.1264  143.3264  164.6105 C.3     1  UNL1        0.0017
     29 C         139.8915  143.0728  162.7210 C.3     1  UNL1        0.0017
     30 C         141.2140  142.4095  162.9681 C.3     1  UNL1        0.0001
@<TRIPOS>BOND
     1    27    28    1
     2    28    26    1
     3    26    29    1
     4    29    30    1
     5    26    25    1
     6    25    23    1
     7    23     1    1
     8     1     2   ar
     9     2    18    1
    10    18    19   am
    11    18    20    2
    12     2     3   ar
    13     3     4   ar
    14     4     5   ar
    15     5     6   ar
    16     6     7    1
    17     6     8   ar
    18     8     9   ar
    19     9    12    1
    20    12    13   ar
    21    13    14   ar
    22    14    15   ar
    23    15    16   ar
    24    16    17   ar
    25     9    10   ar
    26    10    11   ar
    27    11     1   ar
    28    11     5   ar
    29    17    12   ar
    30    23    24    1
    31    19    21    1
    32    19    22    1
@<TRIPOS>MOLECULE
*****
 30 32 0 0 0
SMALL
GASTEIGER

@<TRIPOS>ATOM
      1 C         140.5993  141.6451  167.9306 C.ar    1  UNL1        0.0519
      2 C         140.3222  141.7317  169.4022 C.ar    1  UNL1        0.0853
      3 C         139.3183  140.8120  170.0318 C.ar    1  UNL1        0.1045
      4 N         138.5916  139.8056  169.1898 N.ar    1  UNL1       -0.2439
      5 C         138.8687  139.7190  167.7182 C.ar    1  UNL1        0.0785
      6 C         138.1419  138.7125  166.8762 C.ar    1  UNL1       -0.0042
      7 C         137.1381  137.7928  167.5058 C.3     1  UNL1        0.0326
      8 C         138.4190  138.6258  165.4046 C.ar    1  UNL1       -0.0027
      9 C         139.4228  139.5455  164.7749 C.ar    1  UNL1        0.0013
     10 C         140.1496  140.5519  165.6169 C.ar    1  UNL1        0.0028
     11 C         139.8725  140.6387  167.0886 C.ar    1  UNL1        0.0306
     12 C         139.6999  139.4588  163.3032 C.ar    1  UNL1        0.0192
     13 C         140.6260  140.4448  162.6551 C.ar    1  UNL1        0.0031
     14 C         140.9031  140.3581  161.1835 C.ar    1  UNL1        0.0207
     15 C         140.2541  139.2854  160.3600 C.ar    1  UNL1        0.0989
     16 N         139.3279  138.2995  161.0082 N.ar    1  UNL1       -0.2423
     17 C         139.0508  138.3862  162.4798 C.ar    1  UNL1        0.0988
     18 C         141.0489  142.7382  170.2442 C.2     1  UNL1        0.2455
     19 N         142.0293  142.2793  171.2826 N.am    1  UNL1       -0.3252
     20 O         140.7953  144.2035  170.0478 O.2     1  UNL1       -0.2703
     21 H         142.1957  141.3176  171.4115 H       1  UNL1        0.1453
     22 H         142.5062  142.9398  171.8353 H       1  UNL1        0.1453
     23 N         141.6031  142.5648  167.3009 N.pl3   1  UNL1       -0.3325
     24 H         141.3314  143.4655  167.0108 H       1  UNL1        0.1468
     25 C         143.0208  142.1122  167.1133 C.3     1  UNL1        0.0870
     26 C         143.6861  142.2643  165.7776 C.3     1  UNL1        0.0195
     27 C         143.5774  139.7150  165.2885 C.3     1  UNL1        0.0001
     28 C         143.6680  141.1293  164.7970 C.3     1  UNL1        0.0017
     29 C         144.3696  143.5514  165.4224 C.3     1  UNL1        0.0017
     30 C         143.8277  144.4081  164.3168 C.3     1  UNL1        0.0001
@<TRIPOS>BOND
     1    27    28    1
     2    28    26    1
     3    26    29    1
     4    29    30    1
     5    26    25    1
     6    25    23    1
     7    23     1    1
     8     1     2   ar
     9     2    18    1
    10    18    19   am
    11    18    20    2
    12     2     3   ar
    13     3     4   ar
    14     4     5   ar
    15     5     6   ar
    16     6     7    1
    17     6     8   ar
    18     8     9   ar
    19     9    12    1
    20    12    13   ar
    21    13    14   ar
    22    14    15   ar
    23    15    16   ar
    24    16    17   ar
    25     9    10   ar
    26    10    11   ar
    27    11     1   ar
    28    11     5   ar
    29    17    12   ar
    30    23    24    1
    31    19    21    1
    32    19    22    1
@<TRIPOS>MOLECULE
*****
 30 32 0 0 0
SMALL
GASTEIGER

@<TRIPOS>ATOM
      1 C         140.2731  144.3650  163.1873 C.ar    1  UNL1        0.0519
      2 C         140.8847  144.7966  161.8875 C.ar    1  UNL1        0.0853
      3 C         142.3027  144.4274  161.5665 C.ar    1  UNL1        0.1045
      4 N         143.1091  143.6266  162.5454 N.ar    1  UNL1       -0.2439
      5 C         142.4976  143.1950  163.8453 C.ar    1  UNL1        0.0785
      6 C         143.3040  142.3942  164.8243 C.ar    1  UNL1       -0.0042
      7 C         144.7220  142.0250  164.5033 C.3     1  UNL1        0.0326
      8 C         142.6925  141.9626  166.1241 C.ar    1  UNL1       -0.0027
      9 C         141.2745  142.3318  166.4451 C.ar    1  UNL1        0.0013
     10 C         140.4680  143.1326  165.4662 C.ar    1  UNL1        0.0028
     11 C         141.0796  143.5642  164.1662 C.ar    1  UNL1        0.0306
     12 C         140.6629  141.9001  167.7450 C.ar    1  UNL1        0.0192
     13 C         140.5452  142.8751  168.8788 C.ar    1  UNL1        0.0031
     14 C         139.9337  142.4435  170.1787 C.ar    1  UNL1        0.0207
     15 C         139.4400  141.0369  170.3448 C.ar    1  UNL1        0.0989
     16 N         139.5577  140.0619  169.2110 N.ar    1  UNL1       -0.2423
     17 C         140.1692  140.4935  167.9111 C.ar    1  UNL1        0.0988
     18 C         140.0782  145.5975  160.9085 C.2     1  UNL1        0.2455
     19 N         140.1149  145.2546  159.4487 N.am    1  UNL1       -0.3252
     20 O         139.2352  146.7411  161.3894 O.2     1  UNL1       -0.2703
     21 H         140.6682  144.5040  159.1330 H       1  UNL1        0.1453
     22 H         139.5856  145.7802  158.8061 H       1  UNL1        0.1453
     23 N         138.8551  144.7342  163.5083 N.pl3   1  UNL1       -0.3325
     24 H         138.6669  145.5085  164.0864 H       1  UNL1        0.1468
     25 C         137.7240  143.9237  162.9484 C.3     1  UNL1        0.0870
     26 C         137.7596  142.4266  163.0344 C.3     1  UNL1        0.0195
     27 C         138.4048  142.2850  160.5217 C.3     1  UNL1        0.0001
     28 C         138.0055  141.6100  161.8004 C.3     1  UNL1        0.0017
     29 C         137.5493  141.7460  164.3545 C.3     1  UNL1        0.0017
     30 C         138.1592  140.3995  164.6097 C.3     1  UNL1        0.0001
@<TRIPOS>BOND
     1    27    28    1
     2    28    26    1
     3    26    29    1
     4    29    30    1
     5    26    25    1
     6    25    23    1
     7    23     1    1
     8     1     2   ar
     9     2    18    1
    10    18    19   am
    11    18    20    2
    12     2     3   ar
    13     3     4   ar
    14     4     5   ar
    15     5     6   ar
    16     6     7    1
    17     6     8   ar
    18     8     9   ar
    19     9    12    1
    20    12    13   ar
    21    13    14   ar
    22    14    15   ar
    23    15    16   ar
    24    16    17   ar
    25     9    10   ar
    26    10    11   ar
    27    11     1   ar
    28    11     5   ar
    29    17    12   ar
    30    23    24    1
    31    19    21    1
    32    19    22    1
@<TRIPOS>MOLECULE
*****
 30 32 0 0 0
SMALL
GASTEIGER

@<TRIPOS>ATOM
      1 C         140.5147  144.2917  163.4714 C.ar    1  UNL1        0.0519
      2 C         139.9401  144.2857  162.0858 C.ar    1  UNL1        0.0853
      3 C         139.0786  143.1431  161.6361 C.ar    1  UNL1        0.1045
      4 N         138.7916  142.0065  162.5719 N.ar    1  UNL1       -0.2439
      5 C         139.3662  142.0125  163.9575 C.ar    1  UNL1        0.0785
      6 C         139.0793  140.8759  164.8934 C.ar    1  UNL1       -0.0042
      7 C         138.2178  139.7333  164.4437 C.3     1  UNL1        0.0326
      8 C         139.6539  140.8819  166.2789 C.ar    1  UNL1       -0.0027
      9 C         140.5155  142.0245  166.7286 C.ar    1  UNL1        0.0013
     10 C         140.8024  143.1611  165.7928 C.ar    1  UNL1        0.0028
     11 C         140.2278  143.1551  164.4072 C.ar    1  UNL1        0.0306
     12 C         141.0901  142.0305  168.1142 C.ar    1  UNL1        0.0192
     13 C         142.5658  142.2110  168.3134 C.ar    1  UNL1        0.0031
     14 C         143.1404  142.2169  169.6989 C.ar    1  UNL1        0.0207
     15 C         142.2393  142.0424  170.8853 C.ar    1  UNL1        0.0989
     16 N         140.7636  141.8619  170.6861 N.ar    1  UNL1       -0.2423
     17 C         140.1890  141.8559  169.3006 C.ar    1  UNL1        0.0988
     18 C         140.2270  145.4223  161.1499 C.2     1  UNL1        0.2455
     19 N         141.4697  145.4069  160.3100 N.am    1  UNL1       -0.3252
     20 O         139.2712  146.5744  161.0540 O.2     1  UNL1       -0.2703
     21 H         142.0970  144.6507  160.3730 H       1  UNL1        0.1453
     22 H         141.6580  146.1528  159.6958 H       1  UNL1        0.1453
     23 N         141.3762  145.4343  163.9211 N.pl3   1  UNL1       -0.3325
     24 H         140.9711  146.2053  164.3801 H       1  UNL1        0.1468
     25 C         142.8549  145.4022  163.6715 C.3     1  UNL1        0.0870
     26 C         143.5561  144.0890  163.4870 C.3     1  UNL1        0.0195
     27 C         144.8150  143.8249  165.7443 C.3     1  UNL1        0.0001
     28 C         143.9199  143.2587  164.6821 C.3     1  UNL1        0.0017
     29 C         143.8933  143.6062  162.1075 C.3     1  UNL1        0.0017
     30 C         143.1598  142.4360  161.5222 C.3     1  UNL1        0.0001
@<TRIPOS>BOND
     1    27    28    1
     2    28    26    1
     3    26    29    1
     4    29    30    1
     5    26    25    1
     6    25    23    1
     7    23     1    1
     8     1     2   ar
     9     2    18    1
    10    18    19   am
    11    18    20    2
    12     2     3   ar
    13     3     4   ar
    14     4     5   ar
    15     5     6   ar
    16     6     7    1
    17     6     8   ar
    18     8     9   ar
    19     9    12    1
    20    12    13   ar
    21    13    14   ar
    22    14    15   ar
    23    15    16   ar
    24    16    17   ar
    25     9    10   ar
    26    10    11   ar
    27    11     1   ar
    28    11     5   ar
    29    17    12   ar
    30    23    24    1
    31    19    21    1
    32    19    22    1
@<TRIPOS>MOLECULE
*****
 30 32 0 0 0
SMALL
GASTEIGER

@<TRIPOS>ATOM
      1 C         141.2554  142.5168  162.9558 C.ar    1  UNL1        0.0519
      2 C         141.5692  142.0104  161.5793 C.ar    1  UNL1        0.0853
      3 C         141.7361  140.5388  161.3414 C.ar    1  UNL1        0.1045
      4 N         141.5891  139.5736  162.4801 N.ar    1  UNL1       -0.2439
      5 C         141.2753  140.0800  163.8567 C.ar    1  UNL1        0.0785
      6 C         141.1283  139.1148  164.9955 C.ar    1  UNL1       -0.0042
      7 C         141.2951  137.6432  164.7577 C.3     1  UNL1        0.0326
      8 C         140.8144  139.6212  166.3721 C.ar    1  UNL1       -0.0027
      9 C         140.6476  141.0928  166.6100 C.ar    1  UNL1        0.0013
     10 C         140.7945  142.0580  165.4712 C.ar    1  UNL1        0.0028
     11 C         141.1084  141.5516  164.0946 C.ar    1  UNL1        0.0306
     12 C         140.3337  141.5992  167.9866 C.ar    1  UNL1        0.0192
     13 C         140.6714  143.0119  168.3612 C.ar    1  UNL1        0.0031
     14 C         140.3576  143.5183  169.7378 C.ar    1  UNL1        0.0207
     15 C         139.7061  142.6120  170.7398 C.ar    1  UNL1        0.0989
     16 N         139.3683  141.1993  170.3652 N.ar    1  UNL1       -0.2423
     17 C         139.6821  140.6929  168.9887 C.ar    1  UNL1        0.0988
     18 C         141.7162  142.9756  160.4404 C.2     1  UNL1        0.2455
     19 N         140.9213  142.7794  159.1836 N.am    1  UNL1       -0.3252
     20 O         142.6581  144.1370  160.5585 O.2     1  UNL1       -0.2703
     21 H         140.3031  142.0171  159.1062 H       1  UNL1        0.1453
     22 H         141.0178  143.4129  158.4362 H       1  UNL1        0.1453
     23 N         141.0885  143.9884  163.1937 N.pl3   1  UNL1       -0.3325
     24 H         141.8428  144.5203  163.5361 H       1  UNL1        0.1468
     25 C         139.7724  144.6495  162.9098 C.3     1  UNL1        0.0870
     26 C         138.4915  143.9508  163.2580 C.3     1  UNL1        0.0195
     27 C         137.6834  141.6024  162.4952 C.3     1  UNL1        0.0001
     28 C         137.8152  143.0755  162.2448 C.3     1  UNL1        0.0017
     29 C         137.8870  144.1275  164.6194 C.3     1  UNL1        0.0017
     30 C         138.5743  144.9858  165.6396 C.3     1  UNL1        0.0001
@<TRIPOS>BOND
     1    27    28    1
     2    28    26    1
     3    26    29    1
     4    29    30    1
     5    26    25    1
     6    25    23    1
     7    23     1    1
     8     1     2   ar
     9     2    18    1
    10    18    19   am
    11    18    20    2
    12     2     3   ar
    13     3     4   ar
    14     4     5   ar
    15     5     6   ar
    16     6     7    1
    17     6     8   ar
    18     8     9   ar
    19     9    12    1
    20    12    13   ar
    21    13    14   ar
    22    14    15   ar
    23    15    16   ar
    24    16    17   ar
    25     9    10   ar
    26    10    11   ar
    27    11     1   ar
    28    11     5   ar
    29    17    12   ar
    30    23    24    1
    31    19    21    1
    32    19    22    1
@<TRIPOS>MOLECULE
*****
 30 32 0 0 0
SMALL
GASTEIGER

@<TRIPOS>ATOM
      1 C         143.2488  139.4867  163.3964 C.ar    1  UNL1        0.0519
      2 C         144.0159  139.8185  162.1509 C.ar    1  UNL1        0.0853
      3 C         144.7591  141.1176  162.0515 C.ar    1  UNL1        0.1045
      4 N         144.7353  142.0849  163.1976 N.ar    1  UNL1       -0.2439
      5 C         143.9682  141.7531  164.4432 C.ar    1  UNL1        0.0785
      6 C         143.9443  142.7204  165.5894 C.ar    1  UNL1       -0.0042
      7 C         144.6876  144.0195  165.4900 C.3     1  UNL1        0.0326
      8 C         143.1773  142.3886  166.8350 C.ar    1  UNL1       -0.0027
      9 C         142.4340  141.0895  166.9343 C.ar    1  UNL1        0.0013
     10 C         142.4578  140.1222  165.7882 C.ar    1  UNL1        0.0028
     11 C         143.2250  140.4540  164.5426 C.ar    1  UNL1        0.0306
     12 C         141.6669  140.7577  168.1800 C.ar    1  UNL1        0.0192
     13 C         140.1802  140.5686  168.1172 C.ar    1  UNL1        0.0031
     14 C         139.4131  140.2369  169.3627 C.ar    1  UNL1        0.0207
     15 C         140.1327  140.0941  170.6711 C.ar    1  UNL1        0.0989
     16 N         141.6194  140.2831  170.7338 N.ar    1  UNL1       -0.2423
     17 C         142.3865  140.6149  169.4883 C.ar    1  UNL1        0.0988
     18 C         144.0397  138.8512  161.0046 C.2     1  UNL1        0.2455
     19 N         143.9204  139.3538  159.5964 N.am    1  UNL1       -0.3252
     20 O         144.1830  137.3812  161.2666 O.2     1  UNL1       -0.2703
     21 H         143.8264  140.3186  159.4245 H       1  UNL1        0.1453
     22 H         143.9361  138.7190  158.8441 H       1  UNL1        0.1453
     23 N         142.5055  138.1875  163.4958 N.pl3   1  UNL1       -0.3325
     24 H         142.9340  137.4061  163.9141 H       1  UNL1        0.1468
     25 C         141.1096  138.0791  162.9579 C.3     1  UNL1        0.0870
     26 C         139.9502  138.5631  163.7775 C.3     1  UNL1        0.0195
     27 C         138.3804  138.2984  165.8307 C.3     1  UNL1        0.0001
     28 C         139.5557  137.8297  165.0251 C.3     1  UNL1        0.0017
     29 C         139.1855  139.7804  163.3495 C.3     1  UNL1        0.0017
     30 C         139.6245  141.1405  163.8049 C.3     1  UNL1        0.0001
@<TRIPOS>BOND
     1    27    28    1
     2    28    26    1
     3    26    29    1
     4    29    30    1
     5    26    25    1
     6    25    23    1
     7    23     1    1
     8     1     2   ar
     9     2    18    1
    10    18    19   am
    11    18    20    2
    12     2     3   ar
    13     3     4   ar
    14     4     5   ar
    15     5     6   ar
    16     6     7    1
    17     6     8   ar
    18     8     9   ar
    19     9    12    1
    20    12    13   ar
    21    13    14   ar
    22    14    15   ar
    23    15    16   ar
    24    16    17   ar
    25     9    10   ar
    26    10    11   ar
    27    11     1   ar
    28    11     5   ar
    29    17    12   ar
    30    23    24    1
    31    19    21    1
    32    19    22    1
@<TRIPOS>MOLECULE
*****
 30 32 0 0 0
SMALL
GASTEIGER

@<TRIPOS>ATOM
      1 C         139.7344  139.6291  163.9941 C.ar    1  UNL1        0.0519
      2 C         138.9819  139.4851  162.7046 C.ar    1  UNL1        0.0853
      3 C         138.2523  140.6614  162.1266 C.ar    1  UNL1        0.1045
      4 N         138.2752  141.9816  162.8381 N.ar    1  UNL1       -0.2439
      5 C         139.0277  142.1257  164.1276 C.ar    1  UNL1        0.0785
      6 C         139.0507  143.4460  164.8392 C.ar    1  UNL1       -0.0042
      7 C         138.3211  144.6223  164.2612 C.3     1  UNL1        0.0326
      8 C         139.8033  143.5900  166.1287 C.ar    1  UNL1       -0.0027
      9 C         140.5329  142.4137  166.7067 C.ar    1  UNL1        0.0013
     10 C         140.5099  141.0935  165.9952 C.ar    1  UNL1        0.0028
     11 C         139.7574  140.9494  164.7056 C.ar    1  UNL1        0.0306
     12 C         141.2855  142.5578  167.9963 C.ar    1  UNL1        0.0192
     13 C         142.7190  142.1243  168.0805 C.ar    1  UNL1        0.0031
     14 C         143.4715  142.2684  169.3700 C.ar    1  UNL1        0.0207
     15 C         142.7906  142.8459  170.5752 C.ar    1  UNL1        0.0989
     16 N         141.3571  143.2794  170.4910 N.ar    1  UNL1       -0.2423
     17 C         140.6045  143.1354  169.2015 C.ar    1  UNL1        0.0988
     18 C         138.9589  138.1648  161.9930 C.2     1  UNL1        0.2455
     19 N         137.6870  137.3728  161.9225 N.am    1  UNL1       -0.3252
     20 O         140.2079  137.6365  161.3519 O.2     1  UNL1       -0.2703
     21 H         136.8672  137.7196  162.3433 H       1  UNL1        0.1453
     22 H         137.6719  136.5063  161.4555 H       1  UNL1        0.1453
     23 N         140.4640  138.4529  164.5721 N.pl3   1  UNL1       -0.3325
     24 H         140.0401  137.9065  165.2728 H       1  UNL1        0.1468
     25 C         141.8395  138.1090  164.0824 C.3     1  UNL1        0.0870
     26 C         142.9266  139.1420  164.1133 C.3     1  UNL1        0.0195
     27 C         143.4617  138.5062  166.5750 C.3     1  UNL1        0.0001
     28 C         143.7533  139.3239  165.3517 C.3     1  UNL1        0.0017
     29 C         143.1871  139.9930  162.9060 C.3     1  UNL1        0.0017
     30 C         142.9502  141.4730  162.9662 C.3     1  UNL1        0.0001
@<TRIPOS>BOND
     1    27    28    1
     2    28    26    1
     3    26    29    1
     4    29    30    1
     5    26    25    1
     6    25    23    1
     7    23     1    1
     8     1     2   ar
     9     2    18    1
    10    18    19   am
    11    18    20    2
    12     2     3   ar
    13     3     4   ar
    14     4     5   ar
    15     5     6   ar
    16     6     7    1
    17     6     8   ar
    18     8     9   ar
    19     9    12    1
    20    12    13   ar
    21    13    14   ar
    22    14    15   ar
    23    15    16   ar
    24    16    17   ar
    25     9    10   ar
    26    10    11   ar
    27    11     1   ar
    28    11     5   ar
    29    17    12   ar
    30    23    24    1
    31    19    21    1
    32    19    22    1
@<TRIPOS>MOLECULE
*****
 30 32 0 0 0
SMALL
GASTEIGER

@<TRIPOS>ATOM
      1 C         141.4473  139.2438  163.8694 C.ar    1  UNL1        0.0519
      2 C         140.7789  138.3887  162.8341 C.ar    1  UNL1        0.0853
      3 C         139.4513  137.7553  163.1278 C.ar    1  UNL1        0.1045
      4 N         138.7920  137.9770  164.4567 N.ar    1  UNL1       -0.2439
      5 C         139.4604  138.8322  165.4921 C.ar    1  UNL1        0.0785
      6 C         138.8012  139.0540  166.8211 C.ar    1  UNL1       -0.0042
      7 C         137.4736  138.4206  167.1148 C.3     1  UNL1        0.0326
      8 C         139.4696  139.9091  167.8564 C.ar    1  UNL1       -0.0027
      9 C         140.7972  140.5425  167.5628 C.ar    1  UNL1        0.0013
     10 C         141.4564  140.3208  166.2338 C.ar    1  UNL1        0.0028
     11 C         140.7880  139.4656  165.1984 C.ar    1  UNL1        0.0306
     12 C         141.4656  141.3977  168.5982 C.ar    1  UNL1        0.0192
     13 C         142.9488  141.6153  168.5475 C.ar    1  UNL1        0.0031
     14 C         143.6172  142.4705  169.5828 C.ar    1  UNL1        0.0207
     15 C         142.8024  143.1080  170.6688 C.ar    1  UNL1        0.0989
     16 N         141.3191  142.8904  170.7195 N.ar    1  UNL1       -0.2423
     17 C         140.6507  142.0353  169.6842 C.ar    1  UNL1        0.0988
     18 C         141.4381  138.1669  161.5051 C.2     1  UNL1        0.2455
     19 N         140.6745  138.4159  160.2383 N.am    1  UNL1       -0.3252
     20 O         142.8609  137.6961  161.4429 O.2     1  UNL1       -0.2703
     21 H         139.7406  138.7249  160.2791 H       1  UNL1        0.1453
     22 H         141.1071  138.2703  159.3660 H       1  UNL1        0.1453
     23 N         142.7749  139.8773  163.5758 N.pl3   1  UNL1       -0.3325
     24 H         143.6030  139.3548  163.6784 H       1  UNL1        0.1468
     25 C         142.8408  141.3066  163.1258 C.3     1  UNL1        0.0870
     26 C         143.3708  142.3608  164.0520 C.3     1  UNL1        0.0195
     27 C         145.8211  141.6726  163.5298 C.3     1  UNL1        0.0001
     28 C         144.8303  142.3907  164.3974 C.3     1  UNL1        0.0017
     29 C         142.4416  143.3851  164.6327 C.3     1  UNL1        0.0017
     30 C         140.9896  143.3796  164.2561 C.3     1  UNL1        0.0001
@<TRIPOS>BOND
     1    27    28    1
     2    28    26    1
     3    26    29    1
     4    29    30    1
     5    26    25    1
     6    25    23    1
     7    23     1    1
     8     1     2   ar
     9     2    18    1
    10    18    19   am
    11    18    20    2
    12     2     3   ar
    13     3     4   ar
    14     4     5   ar
    15     5     6   ar
    16     6     7    1
    17     6     8   ar
    18     8     9   ar
    19     9    12    1
    20    12    13   ar
    21    13    14   ar
    22    14    15   ar
    23    15    16   ar
    24    16    17   ar
    25     9    10   ar
    26    10    11   ar
    27    11     1   ar
    28    11     5   ar
    29    17    12   ar
    30    23    24    1
    31    19    21    1
    32    19    22    1
@<TRIPOS>MOLECULE
*****
 30 32 0 0 0
SMALL
GASTEIGER

@<TRIPOS>ATOM
      1 C         140.3076  141.9647  163.2721 C.ar    1  UNL1        0.0519
      2 C         139.5193  141.3951  162.1302 C.ar    1  UNL1        0.0853
      3 C         138.5257  140.2989  162.3777 C.ar    1  UNL1        0.1045
      4 N         138.3206  139.7723  163.7672 N.ar    1  UNL1       -0.2439
      5 C         139.1089  140.3419  164.9091 C.ar    1  UNL1        0.0785
      6 C         138.9038  139.8154  166.2986 C.ar    1  UNL1       -0.0042
      7 C         137.9102  138.7192  166.5462 C.3     1  UNL1        0.0326
      8 C         139.6921  140.3850  167.4405 C.ar    1  UNL1       -0.0027
      9 C         140.6856  141.4812  167.1930 C.ar    1  UNL1        0.0013
     10 C         140.8908  142.0078  165.8035 C.ar    1  UNL1        0.0028
     11 C         140.1024  141.4381  164.6615 C.ar    1  UNL1        0.0306
     12 C         141.4740  142.0508  168.3350 C.ar    1  UNL1        0.0192
     13 C         142.9137  141.6706  168.5159 C.ar    1  UNL1        0.0031
     14 C         143.7021  142.2401  169.6578 C.ar    1  UNL1        0.0207
     15 C         143.0508  143.1899  170.6188 C.ar    1  UNL1        0.0989
     16 N         141.6111  143.5702  170.4379 N.ar    1  UNL1       -0.2423
     17 C         140.8227  143.0006  169.2960 C.ar    1  UNL1        0.0988
     18 C         139.7244  141.9216  160.7407 C.2     1  UNL1        0.2455
     19 N         140.8815  141.4371  159.9183 N.am    1  UNL1       -0.3252
     20 O         138.7724  142.9327  160.1736 O.2     1  UNL1       -0.2703
     21 H         141.5063  140.7736  160.2904 H       1  UNL1        0.1453
     22 H         141.0161  141.7827  159.0063 H       1  UNL1        0.1453
     23 N         141.3011  143.0609  163.0246 N.pl3   1  UNL1       -0.3325
     24 H         142.1067  142.8830  162.4873 H       1  UNL1        0.1468
     25 C         141.0673  144.4281  163.5956 C.3     1  UNL1        0.0870
     26 C         139.6945  145.0314  163.5591 C.3     1  UNL1        0.0195
     27 C         140.1199  145.8527  161.1312 C.3     1  UNL1        0.0001
     28 C         139.2241  145.7513  162.3300 C.3     1  UNL1        0.0017
     29 C         138.7920  144.9148  164.7515 C.3     1  UNL1        0.0017
     30 C         137.5900  144.0192  164.6977 C.3     1  UNL1        0.0001
@<TRIPOS>BOND
     1    27    28    1
     2    28    26    1
     3    26    29    1
     4    29    30    1
     5    26    25    1
     6    25    23    1
     7    23     1    1
     8     1     2   ar
     9     2    18    1
    10    18    19   am
    11    18    20    2
    12     2     3   ar
    13     3     4   ar
    14     4     5   ar
    15     5     6   ar
    16     6     7    1
    17     6     8   ar
    18     8     9   ar
    19     9    12    1
    20    12    13   ar
    21    13    14   ar
    22    14    15   ar
    23    15    16   ar
    24    16    17   ar
    25     9    10   ar
    26    10    11   ar
    27    11     1   ar
    28    11     5   ar
    29    17    12   ar
    30    23    24    1
    31    19    21    1
    32    19    22    1
