@<TRIPOS>MOLECULE
*****
 38 41 0 0 0
SMALL
GASTEIGER

@<TRIPOS>ATOM
      1 C         142.4002  142.9801  159.1504 C.ar    1  UNL1        0.1331
      2 C         141.0039  143.2788  158.6912 C.ar    1  UNL1        0.0346
      3 C         140.0843  144.0836  159.5610 C.ar    1  UNL1        0.0102
      4 C         140.5612  144.5897  160.8901 C.ar    1  UNL1        0.0849
      5 C         141.9575  144.2910  161.3493 C.ar    1  UNL1        0.1379
      6 N         142.8770  143.4862  160.4795 N.ar    1  UNL1       -0.2158
      7 C         145.2689  141.4567  157.0253 C.3     1  UNL1        0.0933
      8 C         144.2009  140.4167  156.8585 C.3     1  UNL1        0.0428
      9 C         142.9963  140.8608  157.6343 C.3     1  UNL1        0.0940
     10 N         143.3198  142.1753  158.2805 N.pl3   1  UNL1       -0.2915
     11 C         144.7243  142.5436  157.9041 C.3     1  UNL1        0.1117
     12 C         146.9270  142.1805  155.1607 C.2     1  UNL1        0.2460
     13 O         145.8417  142.9839  154.5075 O.2     1  UNL1       -0.2701
     14 N         146.6406  141.4169  156.4196 N.am    1  UNL1       -0.3007
     15 H         147.3529  140.8896  156.8484 H       1  UNL1        0.1497
     16 C         149.4772  141.7413  155.3927 C.2     1  UNL1        0.0048
     17 C         148.2987  142.1407  154.5550 C.2     1  UNL1        0.0577
     18 C         139.6415  145.3946  161.7600 C.2     1  UNL1        0.2455
     19 N         138.3965  144.7692  162.3156 N.am    1  UNL1       -0.3252
     20 O         139.9671  146.8247  162.0742 O.2     1  UNL1       -0.2703
     21 H         138.1829  143.8306  162.1094 H       1  UNL1        0.1453
     22 H         137.7929  145.2975  162.8865 H       1  UNL1        0.1453
     23 N         142.4343  144.7972  162.6784 N.pl3   1  UNL1       -0.2978
     24 H         142.7709  145.7185  162.7624 H       1  UNL1        0.1536
     25 C         142.3984  143.8995  163.8796 C.ar    1  UNL1        0.0494
     26 C         141.1258  143.1998  164.2552 C.ar    1  UNL1        0.0148
     27 C         141.0899  142.3021  165.4565 C.ar    1  UNL1        0.0058
     28 C         142.3265  142.1042  166.2820 C.ar    1  UNL1        0.0537
     29 C         143.5991  142.8038  165.9064 C.ar    1  UNL1        0.0058
     30 C         143.6350  143.7015  164.7052 C.ar    1  UNL1        0.0148
     31 C         142.2906  141.2065  167.4833 C.2     1  UNL1        0.2492
     32 O         142.9371  139.8541  167.4285 O.2     1  UNL1       -0.2699
     33 N         141.6081  141.6612  168.7392 N.am    1  UNL1       -0.2709
     34 C         140.9616  143.0137  168.7939 C.3     1  UNL1        0.1258
     35 C         140.2791  143.4684  170.0499 C.3     1  UNL1        0.1637
     36 O         140.2432  142.5708  171.2512 O.3     1  UNL1       -0.3501
     37 C         140.8897  141.2184  171.1964 C.3     1  UNL1        0.1637
     38 C         141.5722  140.7636  169.9405 C.3     1  UNL1        0.1258
@<TRIPOS>BOND
     1    16    17    2
     2    17    12    1
     3    12    13    2
     4    12    14   am
     5     7    14    1
     6     7     8    1
     7     8     9    1
     8     9    10    1
     9    10     1    1
    10     1     2   ar
    11     2     3   ar
    12     3     4   ar
    13     4    18    1
    14    18    19   am
    15    18    20    2
    16     4     5   ar
    17     5    23    1
    18    23    25    1
    19    25    26   ar
    20    26    27   ar
    21    27    28   ar
    22    28    31    1
    23    31    32    2
    24    31    33   am
    25    33    34    1
    26    34    35    1
    27    35    36    1
    28    36    37    1
    29    37    38    1
    30    28    29   ar
    31    29    30   ar
    32     5     6   ar
    33    10    11    1
    34    11     7    1
    35     6     1   ar
    36    30    25   ar
    37    38    33    1
    38    14    15    1
    39    19    21    1
    40    19    22    1
    41    23    24    1
@<TRIPOS>MOLECULE
*****
 38 41 0 0 0
SMALL
GASTEIGER

@<TRIPOS>ATOM
      1 C         141.1059  138.4972  157.7081 C.ar    1  UNL1        0.1331
      2 C         141.8857  139.7746  157.6083 C.ar    1  UNL1        0.0346
      3 C         141.4091  141.0023  158.3264 C.ar    1  UNL1        0.0102
      4 C         140.1527  140.9524  159.1444 C.ar    1  UNL1        0.0849
      5 C         139.3729  139.6750  159.2442 C.ar    1  UNL1        0.1379
      6 N         139.8495  138.4474  158.5261 N.ar    1  UNL1       -0.2158
      7 C         142.9480  135.3896  156.2885 C.3     1  UNL1        0.0933
      8 C         141.6837  135.3709  155.4813 C.3     1  UNL1        0.0428
      9 C         140.8398  136.5328  155.9149 C.3     1  UNL1        0.0940
     10 N         141.5825  137.2695  156.9900 N.pl3   1  UNL1       -0.2915
     11 C         142.8854  136.5629  157.2208 C.3     1  UNL1        0.1117
     12 C         143.8731  132.9823  156.6037 C.2     1  UNL1        0.2460
     13 O         142.5409  132.5396  157.1321 O.2     1  UNL1       -0.2701
     14 N         144.0766  134.4073  156.1819 N.am    1  UNL1       -0.3007
     15 H         144.9510  134.6979  155.8351 H       1  UNL1        0.1497
     16 C         144.8257  130.7384  155.7051 C.2     1  UNL1        0.0048
     17 C         145.0017  132.0001  156.4971 C.2     1  UNL1        0.0577
     18 C         139.6761  142.1802  159.8625 C.2     1  UNL1        0.2455
     19 N         140.5162  142.7890  160.9458 N.am    1  UNL1       -0.3252
     20 O         138.3594  142.7990  159.4973 O.2     1  UNL1       -0.2703
     21 H         141.3804  142.3828  161.1854 H       1  UNL1        0.1453
     22 H         140.2034  143.5948  161.4171 H       1  UNL1        0.1453
     23 N         138.1166  139.6251  160.0621 N.pl3   1  UNL1       -0.2978
     24 H         137.2386  139.6347  159.6168 H       1  UNL1        0.1536
     25 C         138.1979  139.5608  161.5585 C.ar    1  UNL1        0.0494
     26 C         138.8004  138.3601  162.2259 C.ar    1  UNL1        0.0148
     27 C         138.8817  138.2958  163.7224 C.ar    1  UNL1        0.0058
     28 C         138.3605  139.4320  164.5514 C.ar    1  UNL1        0.0537
     29 C         137.7580  140.6327  163.8839 C.ar    1  UNL1        0.0058
     30 C         137.6767  140.6971  162.3876 C.ar    1  UNL1        0.0148
     31 C         138.4418  139.3677  166.0478 C.2     1  UNL1        0.2492
     32 O         137.3864  138.6389  166.8256 O.2     1  UNL1       -0.2699
     33 N         139.5785  140.0321  166.7664 N.am    1  UNL1       -0.2709
     34 C         140.6339  140.7609  165.9885 C.3     1  UNL1        0.1258
     35 C         141.7706  141.4253  166.7071 C.3     1  UNL1        0.1637
     36 O         141.8519  141.3610  168.2036 O.3     1  UNL1       -0.3501
     37 C         140.7966  140.6322  168.9814 C.3     1  UNL1        0.1637
     38 C         139.6598  139.9678  168.2628 C.3     1  UNL1        0.1258
@<TRIPOS>BOND
     1    16    17    2
     2    17    12    1
     3    12    13    2
     4    12    14   am
     5     7    14    1
     6     7     8    1
     7     8     9    1
     8     9    10    1
     9    10     1    1
    10     1     2   ar
    11     2     3   ar
    12     3     4   ar
    13     4    18    1
    14    18    19   am
    15    18    20    2
    16     4     5   ar
    17     5    23    1
    18    23    25    1
    19    25    26   ar
    20    26    27   ar
    21    27    28   ar
    22    28    31    1
    23    31    32    2
    24    31    33   am
    25    33    34    1
    26    34    35    1
    27    35    36    1
    28    36    37    1
    29    37    38    1
    30    28    29   ar
    31    29    30   ar
    32     5     6   ar
    33    10    11    1
    34    11     7    1
    35     6     1   ar
    36    30    25   ar
    37    38    33    1
    38    14    15    1
    39    19    21    1
    40    19    22    1
    41    23    24    1
@<TRIPOS>MOLECULE
*****
 38 41 0 0 0
SMALL
GASTEIGER

@<TRIPOS>ATOM
      1 C         143.1374  139.6645  159.1137 C.ar    1  UNL1        0.1331
      2 C         143.4821  141.0917  158.8067 C.ar    1  UNL1        0.0346
      3 C         144.1446  141.9440  159.8481 C.ar    1  UNL1        0.0102
      4 C         144.4624  141.3691  161.1967 C.ar    1  UNL1        0.0849
      5 C         144.1177  139.9419  161.5037 C.ar    1  UNL1        0.1379
      6 N         143.4552  139.0896  160.4623 N.ar    1  UNL1       -0.2158
      7 C         141.8082  136.8962  156.7398 C.3     1  UNL1        0.0933
      8 C         141.1028  138.1048  156.1994 C.3     1  UNL1        0.0428
      9 C         141.5149  139.2888  157.0229 C.3     1  UNL1        0.0940
     10 N         142.4749  138.8121  158.0722 N.pl3   1  UNL1       -0.2915
     11 C         142.6562  137.3334  157.8973 C.3     1  UNL1        0.1117
     12 C         142.8442  134.8584  155.5053 C.2     1  UNL1        0.2460
     13 O         144.1230  135.6204  155.3207 O.2     1  UNL1       -0.2701
     14 N         141.6868  135.4963  156.2148 N.am    1  UNL1       -0.3007
     15 H         140.8475  134.9962  156.3360 H       1  UNL1        0.1497
     16 C         141.5635  132.6008  155.3928 C.2     1  UNL1        0.0048
     17 C         142.7228  133.4585  154.9804 C.2     1  UNL1        0.0577
     18 C         145.1249  142.2215  162.2381 C.2     1  UNL1        0.2455
     19 N         144.7519  143.6682  162.3716 N.am    1  UNL1       -0.3252
     20 O         146.1603  141.6270  163.1461 O.2     1  UNL1       -0.2703
     21 H         144.0723  144.0583  161.7756 H       1  UNL1        0.1453
     22 H         145.1867  144.2276  163.0551 H       1  UNL1        0.1453
     23 N         144.4355  139.3670  162.8522 N.pl3   1  UNL1       -0.2978
     24 H         145.2652  138.8541  162.9856 H       1  UNL1        0.1536
     25 C         143.4892  139.5736  163.9976 C.ar    1  UNL1        0.0494
     26 C         143.7380  138.8890  165.3088 C.ar    1  UNL1        0.0148
     27 C         142.7916  139.0956  166.4542 C.ar    1  UNL1        0.0058
     28 C         141.5965  139.9868  166.2882 C.ar    1  UNL1        0.0537
     29 C         141.3478  140.6714  164.9770 C.ar    1  UNL1        0.0058
     30 C         142.2941  140.4648  163.8316 C.ar    1  UNL1        0.0148
     31 C         140.6501  140.1934  167.4336 C.2     1  UNL1        0.2492
     32 O         139.3131  139.5135  167.4337 O.2     1  UNL1       -0.2699
     33 N         141.0409  141.0798  168.5788 N.am    1  UNL1       -0.2709
     34 C         142.3780  141.7597  168.5786 C.3     1  UNL1        0.1258
     35 C         142.7688  142.6461  169.7238 C.3     1  UNL1        0.1637
     36 O         141.8224  142.8527  170.8692 O.3     1  UNL1       -0.3501
     37 C         140.4854  142.1729  170.8693 C.3     1  UNL1        0.1637
     38 C         140.0946  141.2864  169.7241 C.3     1  UNL1        0.1258
@<TRIPOS>BOND
     1    16    17    2
     2    17    12    1
     3    12    13    2
     4    12    14   am
     5     7    14    1
     6     7     8    1
     7     8     9    1
     8     9    10    1
     9    10     1    1
    10     1     2   ar
    11     2     3   ar
    12     3     4   ar
    13     4    18    1
    14    18    19   am
    15    18    20    2
    16     4     5   ar
    17     5    23    1
    18    23    25    1
    19    25    26   ar
    20    26    27   ar
    21    27    28   ar
    22    28    31    1
    23    31    32    2
    24    31    33   am
    25    33    34    1
    26    34    35    1
    27    35    36    1
    28    36    37    1
    29    37    38    1
    30    28    29   ar
    31    29    30   ar
    32     5     6   ar
    33    10    11    1
    34    11     7    1
    35     6     1   ar
    36    30    25   ar
    37    38    33    1
    38    14    15    1
    39    19    21    1
    40    19    22    1
    41    23    24    1
@<TRIPOS>MOLECULE
*****
 38 41 0 0 0
SMALL
GASTEIGER

@<TRIPOS>ATOM
      1 C         139.3097  140.2181  158.0677 C.ar    1  UNL1        0.1331
      2 C         140.7340  140.6873  158.1014 C.ar    1  UNL1        0.0346
      3 C         141.6656  140.1808  159.1623 C.ar    1  UNL1        0.0102
      4 C         141.1728  139.2050  160.1895 C.ar    1  UNL1        0.0849
      5 C         139.7485  138.7359  160.1558 C.ar    1  UNL1        0.1379
      6 N         138.8170  139.2424  159.0949 N.ar    1  UNL1       -0.2158
      7 C         136.3736  141.4702  155.8592 C.3     1  UNL1        0.0933
      8 C         137.5156  141.5382  154.8889 C.3     1  UNL1        0.0428
      9 C         138.7544  141.0775  155.5981 C.3     1  UNL1        0.0940
     10 N         138.3781  140.7247  157.0067 N.pl3   1  UNL1       -0.2915
     11 C         136.9067  140.9674  157.1680 C.3     1  UNL1        0.1117
     12 C         133.8528  140.8434  155.8070 C.2     1  UNL1        0.2460
     13 O         134.1818  139.4769  156.3309 O.2     1  UNL1       -0.2701
     14 N         134.9487  141.8400  155.5712 N.am    1  UNL1       -0.3007
     15 H         134.7328  142.7369  155.2274 H       1  UNL1        0.1497
     16 C         131.3103  140.4743  156.1935 C.2     1  UNL1        0.0048
     17 C         132.4279  141.2132  155.5190 C.2     1  UNL1        0.0577
     18 C         142.1044  138.6985  161.2504 C.2     1  UNL1        0.2455
     19 N         142.7489  137.3522  161.1021 N.am    1  UNL1       -0.3252
     20 O         142.3916  139.5383  162.4597 O.2     1  UNL1       -0.2703
     21 H         142.5604  136.8009  160.3085 H       1  UNL1        0.1453
     22 H         143.3603  137.0197  161.7985 H       1  UNL1        0.1453
     23 N         139.2557  137.7601  161.1830 N.pl3   1  UNL1       -0.2978
     24 H         138.9939  136.8505  160.9122 H       1  UNL1        0.1536
     25 C         139.1619  138.1703  162.6227 C.ar    1  UNL1        0.0494
     26 C         139.8459  137.3561  163.6807 C.ar    1  UNL1        0.0148
     27 C         139.7520  137.7663  165.1205 C.ar    1  UNL1        0.0058
     28 C         138.9741  138.9906  165.5023 C.ar    1  UNL1        0.0537
     29 C         138.2900  139.8048  164.4444 C.ar    1  UNL1        0.0058
     30 C         138.3839  139.3947  163.0046 C.ar    1  UNL1        0.0148
     31 C         138.8802  139.4008  166.9421 C.2     1  UNL1        0.2492
     32 O         137.8451  138.7801  167.8328 O.2     1  UNL1       -0.2699
     33 N         139.8213  140.4317  167.4912 N.am    1  UNL1       -0.2709
     34 C         140.8564  141.0524  166.6004 C.3     1  UNL1        0.1258
     35 C         141.7976  142.0833  167.1494 C.3     1  UNL1        0.1637
     36 O         141.7036  142.4935  168.5892 O.3     1  UNL1       -0.3501
     37 C         140.6686  141.8728  169.4799 C.3     1  UNL1        0.1637
     38 C         139.7274  140.8419  168.9309 C.3     1  UNL1        0.1258
@<TRIPOS>BOND
     1    16    17    2
     2    17    12    1
     3    12    13    2
     4    12    14   am
     5     7    14    1
     6     7     8    1
     7     8     9    1
     8     9    10    1
     9    10     1    1
    10     1     2   ar
    11     2     3   ar
    12     3     4   ar
    13     4    18    1
    14    18    19   am
    15    18    20    2
    16     4     5   ar
    17     5    23    1
    18    23    25    1
    19    25    26   ar
    20    26    27   ar
    21    27    28   ar
    22    28    31    1
    23    31    32    2
    24    31    33   am
    25    33    34    1
    26    34    35    1
    27    35    36    1
    28    36    37    1
    29    37    38    1
    30    28    29   ar
    31    29    30   ar
    32     5     6   ar
    33    10    11    1
    34    11     7    1
    35     6     1   ar
    36    30    25   ar
    37    38    33    1
    38    14    15    1
    39    19    21    1
    40    19    22    1
    41    23    24    1
@<TRIPOS>MOLECULE
*****
 38 41 0 0 0
SMALL
GASTEIGER

@<TRIPOS>ATOM
      1 C         142.0129  137.8501  157.8333 C.ar    1  UNL1        0.1331
      2 C         140.7181  138.6021  157.7444 C.ar    1  UNL1        0.0346
      3 C         140.4936  139.8128  158.6011 C.ar    1  UNL1        0.0102
      4 C         141.5639  140.2714  159.5467 C.ar    1  UNL1        0.0849
      5 C         142.8587  139.5193  159.6356 C.ar    1  UNL1        0.1379
      6 N         143.0832  138.3087  158.7789 N.ar    1  UNL1       -0.2158
      7 C         143.2303  134.6451  156.0135 C.3     1  UNL1        0.0933
      8 C         141.9355  134.9078  155.3030 C.3     1  UNL1        0.0428
      9 C         141.3220  136.1403  155.8982 C.3     1  UNL1        0.0940
     10 N         142.2374  136.6394  156.9766 N.pl3   1  UNL1       -0.2915
     11 C         143.4168  135.7153  157.0478 C.3     1  UNL1        0.1117
     12 C         143.8999  132.1526  156.3120 C.2     1  UNL1        0.2460
     13 O         142.6842  131.9278  157.1615 O.2     1  UNL1       -0.2701
     14 N         144.1729  133.5113  155.7380 N.am    1  UNL1       -0.3007
     15 H         144.9708  133.6589  155.1805 H       1  UNL1        0.1497
     16 C         144.3872  129.6021  156.2255 C.2     1  UNL1        0.0048
     17 C         144.8425  131.0188  156.0365 C.2     1  UNL1        0.0577
     18 C         141.3394  141.4821  160.4034 C.2     1  UNL1        0.2455
     19 N         140.1279  141.5635  161.2840 N.am    1  UNL1       -0.3252
     20 O         142.3265  142.6113  160.3795 O.2     1  UNL1       -0.2703
     21 H         139.4800  140.8223  161.2997 H       1  UNL1        0.1453
     22 H         139.9805  142.3581  161.8463 H       1  UNL1        0.1453
     23 N         143.9290  139.9779  160.5812 N.pl3   1  UNL1       -0.2978
     24 H         144.6990  140.4894  160.2425 H       1  UNL1        0.1536
     25 C         143.8262  139.6572  162.0429 C.ar    1  UNL1        0.0494
     26 C         142.7927  138.6833  162.5261 C.ar    1  UNL1        0.0148
     27 C         142.6900  138.3625  163.9879 C.ar    1  UNL1        0.0058
     28 C         143.6206  139.0157  164.9663 C.ar    1  UNL1        0.0537
     29 C         144.6540  139.9896  164.4830 C.ar    1  UNL1        0.0058
     30 C         144.7569  140.3103  163.0214 C.ar    1  UNL1        0.0148
     31 C         143.5178  138.6949  166.4280 C.2     1  UNL1        0.2492
     32 O         144.3243  137.5709  167.0077 O.2     1  UNL1       -0.2699
     33 N         142.6085  139.4983  167.3100 N.am    1  UNL1       -0.2709
     34 C         141.8020  140.6224  166.7302 C.3     1  UNL1        0.1258
     35 C         140.8927  141.4257  167.6121 C.3     1  UNL1        0.1637
     36 O         140.7899  141.1050  169.0739 O.3     1  UNL1       -0.3501
     37 C         141.5964  139.9809  169.6536 C.3     1  UNL1        0.1637
     38 C         142.5057  139.1776  168.7717 C.3     1  UNL1        0.1258
@<TRIPOS>BOND
     1    16    17    2
     2    17    12    1
     3    12    13    2
     4    12    14   am
     5     7    14    1
     6     7     8    1
     7     8     9    1
     8     9    10    1
     9    10     1    1
    10     1     2   ar
    11     2     3   ar
    12     3     4   ar
    13     4    18    1
    14    18    19   am
    15    18    20    2
    16     4     5   ar
    17     5    23    1
    18    23    25    1
    19    25    26   ar
    20    26    27   ar
    21    27    28   ar
    22    28    31    1
    23    31    32    2
    24    31    33   am
    25    33    34    1
    26    34    35    1
    27    35    36    1
    28    36    37    1
    29    37    38    1
    30    28    29   ar
    31    29    30   ar
    32     5     6   ar
    33    10    11    1
    34    11     7    1
    35     6     1   ar
    36    30    25   ar
    37    38    33    1
    38    14    15    1
    39    19    21    1
    40    19    22    1
    41    23    24    1
@<TRIPOS>MOLECULE
*****
 38 41 0 0 0
SMALL
GASTEIGER

@<TRIPOS>ATOM
      1 C         140.2843  139.7331  159.3313 C.ar    1  UNL1        0.1331
      2 C         138.7903  139.6009  159.3084 C.ar    1  UNL1        0.0346
      3 C         137.9530  140.3880  160.2724 C.ar    1  UNL1        0.0102
      4 C         138.6095  141.3073  161.2592 C.ar    1  UNL1        0.0849
      5 C         140.1035  141.4395  161.2820 C.ar    1  UNL1        0.1379
      6 N         140.9409  140.6525  160.3181 N.ar    1  UNL1       -0.2158
      7 C         141.8460  137.2501  156.7894 C.3     1  UNL1        0.0933
      8 C         142.9750  138.2196  156.9786 C.3     1  UNL1        0.0428
      9 C         142.5273  139.2677  157.9538 C.3     1  UNL1        0.0940
     10 N         141.1217  138.9460  158.3673 N.pl3   1  UNL1       -0.2915
     11 C         140.7007  137.6991  157.6476 C.3     1  UNL1        0.1117
     12 C         142.5672  134.7955  156.3368 C.2     1  UNL1        0.2460
     13 O         143.2604  134.7541  157.6663 O.2     1  UNL1       -0.2701
     14 N         141.8600  136.0435  155.8983 N.am    1  UNL1       -0.3007
     15 H         141.4050  136.0707  155.0257 H       1  UNL1        0.1497
     16 C         141.3052  132.8553  155.1565 C.2     1  UNL1        0.0048
     17 C         142.5812  133.5889  155.4457 C.2     1  UNL1        0.0577
     18 C         137.7721  142.0944  162.2231 C.2     1  UNL1        0.2455
     19 N         136.9201  141.3823  163.2315 N.am    1  UNL1       -0.3252
     20 O         137.7867  143.5937  162.1786 O.2     1  UNL1       -0.2703
     21 H         136.9105  140.3983  163.2607 H       1  UNL1        0.1453
     22 H         136.3704  141.8989  163.8642 H       1  UNL1        0.1453
     23 N         140.7601  142.3589  162.2688 N.pl3   1  UNL1       -0.2978
     24 H         140.9585  143.2899  162.0176 H       1  UNL1        0.1536
     25 C         141.1142  141.8597  163.6382 C.ar    1  UNL1        0.0494
     26 C         140.4497  140.6305  164.1835 C.ar    1  UNL1        0.0148
     27 C         140.8040  140.1313  165.5530 C.ar    1  UNL1        0.0058
     28 C         141.8227  140.8614  166.3771 C.ar    1  UNL1        0.0537
     29 C         142.4872  142.0907  165.8318 C.ar    1  UNL1        0.0058
     30 C         142.1330  142.5898  164.4624 C.ar    1  UNL1        0.0148
     31 C         142.1769  140.3623  167.7466 C.2     1  UNL1        0.2492
     32 O         143.1149  139.2023  167.9027 O.2     1  UNL1       -0.2699
     33 N         141.5931  141.0232  168.9600 N.am    1  UNL1       -0.2709
     34 C         140.6550  142.1833  168.8039 C.3     1  UNL1        0.1258
     35 C         140.0711  142.8442  170.0173 C.3     1  UNL1        0.1637
     36 O         140.4254  142.3451  171.3868 O.3     1  UNL1       -0.3501
     37 C         141.3634  141.1851  171.5428 C.3     1  UNL1        0.1637
     38 C         141.9473  140.5242  170.3295 C.3     1  UNL1        0.1258
@<TRIPOS>BOND
     1    16    17    2
     2    17    12    1
     3    12    13    2
     4    12    14   am
     5     7    14    1
     6     7     8    1
     7     8     9    1
     8     9    10    1
     9    10     1    1
    10     1     2   ar
    11     2     3   ar
    12     3     4   ar
    13     4    18    1
    14    18    19   am
    15    18    20    2
    16     4     5   ar
    17     5    23    1
    18    23    25    1
    19    25    26   ar
    20    26    27   ar
    21    27    28   ar
    22    28    31    1
    23    31    32    2
    24    31    33   am
    25    33    34    1
    26    34    35    1
    27    35    36    1
    28    36    37    1
    29    37    38    1
    30    28    29   ar
    31    29    30   ar
    32     5     6   ar
    33    10    11    1
    34    11     7    1
    35     6     1   ar
    36    30    25   ar
    37    38    33    1
    38    14    15    1
    39    19    21    1
    40    19    22    1
    41    23    24    1
@<TRIPOS>MOLECULE
*****
 38 41 0 0 0
SMALL
GASTEIGER

@<TRIPOS>ATOM
      1 C         138.6354  142.1160  156.7178 C.ar    1  UNL1        0.1331
      2 C         139.8801  142.3904  155.9268 C.ar    1  UNL1        0.0346
      3 C         140.9801  143.2178  156.5227 C.ar    1  UNL1        0.0102
      4 C         140.8356  143.7709  157.9095 C.ar    1  UNL1        0.0849
      5 C         139.5910  143.4965  158.7004 C.ar    1  UNL1        0.1379
      6 N         138.4909  142.6691  158.1046 N.ar    1  UNL1       -0.2158
      7 C         135.3356  140.4108  155.5912 C.3     1  UNL1        0.0933
      8 C         136.3491  139.6196  154.8187 C.3     1  UNL1        0.0428
      9 C         137.7086  140.1621  155.1467 C.3     1  UNL1        0.0940
     10 N         137.5353  141.2886  156.1219 N.pl3   1  UNL1       -0.2915
     11 C         136.0687  141.4423  156.3966 C.3     1  UNL1        0.1117
     12 C         133.1364  139.7208  156.7901 C.2     1  UNL1        0.2460
     13 O         133.9086  139.4395  158.0448 O.2     1  UNL1       -0.2701
     14 N         133.8498  140.2064  155.5633 N.am    1  UNL1       -0.3007
     15 H         133.3430  140.3911  154.7397 H       1  UNL1        0.1497
     16 C         131.0864  138.1408  156.5640 C.2     1  UNL1        0.0048
     17 C         131.6506  139.5164  156.7621 C.2     1  UNL1        0.0577
     18 C         141.9358  144.5984  158.5054 C.2     1  UNL1        0.2455
     19 N         142.5014  145.7574  157.7395 N.am    1  UNL1       -0.3252
     20 O         142.4703  144.2667  159.8671 O.2     1  UNL1       -0.2703
     21 H         142.1506  145.9751  156.8458 H       1  UNL1        0.1453
     22 H         143.2235  146.3005  158.1306 H       1  UNL1        0.1453
     23 N         139.4465  144.0496  160.0872 N.pl3   1  UNL1       -0.2978
     24 H         139.4376  145.0236  160.2303 H       1  UNL1        0.1536
     25 C         139.3155  143.1187  161.2561 C.ar    1  UNL1        0.0494
     26 C         138.0959  143.1760  162.1275 C.ar    1  UNL1        0.0148
     27 C         137.9650  142.2451  163.2964 C.ar    1  UNL1        0.0058
     28 C         139.0535  141.2568  163.5938 C.ar    1  UNL1        0.0537
     29 C         140.2730  141.1995  162.7223 C.ar    1  UNL1        0.0058
     30 C         140.4040  142.1304  161.5535 C.ar    1  UNL1        0.0148
     31 C         138.9225  140.3259  164.7626 C.2     1  UNL1        0.2492
     32 O         138.2884  138.9787  164.5811 O.2     1  UNL1       -0.2699
     33 N         139.4256  140.7421  166.1130 N.am    1  UNL1       -0.2709
     34 C         140.0598  142.0894  166.2945 C.3     1  UNL1        0.1258
     35 C         140.5629  142.5057  167.6449 C.3     1  UNL1        0.1637
     36 O         140.4319  141.5747  168.8138 O.3     1  UNL1       -0.3501
     37 C         139.7978  140.2275  168.6323 C.3     1  UNL1        0.1637
     38 C         139.2947  139.8112  167.2819 C.3     1  UNL1        0.1258
@<TRIPOS>BOND
     1    16    17    2
     2    17    12    1
     3    12    13    2
     4    12    14   am
     5     7    14    1
     6     7     8    1
     7     8     9    1
     8     9    10    1
     9    10     1    1
    10     1     2   ar
    11     2     3   ar
    12     3     4   ar
    13     4    18    1
    14    18    19   am
    15    18    20    2
    16     4     5   ar
    17     5    23    1
    18    23    25    1
    19    25    26   ar
    20    26    27   ar
    21    27    28   ar
    22    28    31    1
    23    31    32    2
    24    31    33   am
    25    33    34    1
    26    34    35    1
    27    35    36    1
    28    36    37    1
    29    37    38    1
    30    28    29   ar
    31    29    30   ar
    32     5     6   ar
    33    10    11    1
    34    11     7    1
    35     6     1   ar
    36    30    25   ar
    37    38    33    1
    38    14    15    1
    39    19    21    1
    40    19    22    1
    41    23    24    1
@<TRIPOS>MOLECULE
*****
 38 41 0 0 0
SMALL
GASTEIGER

@<TRIPOS>ATOM
      1 C         141.9475  142.7012  159.2521 C.ar    1  UNL1        0.1331
      2 C         142.1568  142.8756  157.7771 C.ar    1  UNL1        0.0346
      3 C         142.9400  141.8556  157.0051 C.ar    1  UNL1        0.0102
      4 C         143.5139  140.6612  157.7080 C.ar    1  UNL1        0.0849
      5 C         143.3045  140.4868  159.1830 C.ar    1  UNL1        0.1379
      6 N         142.5213  141.5068  159.9551 N.ar    1  UNL1       -0.2158
      7 C         139.8088  144.7776  161.7382 C.3     1  UNL1        0.0933
      8 C         140.1091  145.8042  160.6866 C.3     1  UNL1        0.0428
      9 C         140.9468  145.1514  159.6274 C.3     1  UNL1        0.0940
     10 N         141.1642  143.7212  160.0243 N.pl3   1  UNL1       -0.2915
     11 C         140.4608  143.4902  161.3289 C.3     1  UNL1        0.1117
     12 C         139.6206  144.7879  164.3295 C.2     1  UNL1        0.2460
     13 O         141.0527  144.3547  164.4352 O.2     1  UNL1       -0.2701
     14 N         138.9986  144.9993  162.9810 N.am    1  UNL1       -0.3007
     15 H         138.0586  145.2836  162.9116 H       1  UNL1        0.1497
     16 C         137.3406  144.7101  165.5727 C.2     1  UNL1        0.0048
     17 C         138.8104  145.0097  165.5722 C.2     1  UNL1        0.0577
     18 C         144.2971  139.6412  156.9359 C.2     1  UNL1        0.2455
     19 N         145.5976  140.0232  156.2934 N.am    1  UNL1       -0.3252
     20 O         143.7798  138.2392  156.8062 O.2     1  UNL1       -0.2703
     21 H         145.9371  140.9434  156.3785 H       1  UNL1        0.1453
     22 H         146.1117  139.3537  155.7867 H       1  UNL1        0.1453
     23 N         143.8784  139.2925  159.8860 N.pl3   1  UNL1       -0.2978
     24 H         144.3301  138.5869  159.3688 H       1  UNL1        0.1536
     25 C         143.7641  139.1731  161.3768 C.ar    1  UNL1        0.0494
     26 C         144.6160  140.0302  162.2654 C.ar    1  UNL1        0.0148
     27 C         144.5016  139.9107  163.7563 C.ar    1  UNL1        0.0058
     28 C         143.5354  138.9342  164.3585 C.ar    1  UNL1        0.0537
     29 C         142.6835  138.0771  163.4700 C.ar    1  UNL1        0.0058
     30 C         142.7978  138.1965  161.9791 C.ar    1  UNL1        0.0148
     31 C         143.4211  138.8147  165.8495 C.2     1  UNL1        0.2492
     32 O         144.3068  137.8615  166.5956 O.2     1  UNL1       -0.2699
     33 N         142.4210  139.6486  166.5941 N.am    1  UNL1       -0.2709
     34 C         141.5352  140.6018  165.8479 C.3     1  UNL1        0.1258
     35 C         140.5351  141.4357  166.5926 C.3     1  UNL1        0.1637
     36 O         140.4208  141.3162  168.0835 O.3     1  UNL1       -0.3501
     37 C         141.3065  140.3630  168.8296 C.3     1  UNL1        0.1637
     38 C         142.3066  139.5291  168.0850 C.3     1  UNL1        0.1258
@<TRIPOS>BOND
     1    16    17    2
     2    17    12    1
     3    12    13    2
     4    12    14   am
     5     7    14    1
     6     7     8    1
     7     8     9    1
     8     9    10    1
     9    10     1    1
    10     1     2   ar
    11     2     3   ar
    12     3     4   ar
    13     4    18    1
    14    18    19   am
    15    18    20    2
    16     4     5   ar
    17     5    23    1
    18    23    25    1
    19    25    26   ar
    20    26    27   ar
    21    27    28   ar
    22    28    31    1
    23    31    32    2
    24    31    33   am
    25    33    34    1
    26    34    35    1
    27    35    36    1
    28    36    37    1
    29    37    38    1
    30    28    29   ar
    31    29    30   ar
    32     5     6   ar
    33    10    11    1
    34    11     7    1
    35     6     1   ar
    36    30    25   ar
    37    38    33    1
    38    14    15    1
    39    19    21    1
    40    19    22    1
    41    23    24    1
@<TRIPOS>MOLECULE
*****
 38 41 0 0 0
SMALL
GASTEIGER

@<TRIPOS>ATOM
      1 C         141.9963  140.1498  167.4303 C.ar    1  UNL1        0.1331
      2 C         142.7744  138.9203  167.0658 C.ar    1  UNL1        0.0346
      3 C         143.7198  138.9489  165.9016 C.ar    1  UNL1        0.0102
      4 C         143.8871  140.2069  165.1020 C.ar    1  UNL1        0.0849
      5 C         143.1090  141.4363  165.4665 C.ar    1  UNL1        0.1379
      6 N         142.1636  141.4078  166.6307 N.ar    1  UNL1       -0.2158
      7 C         139.0160  140.0222  169.9137 C.3     1  UNL1        0.0933
      8 C         140.1760  140.1325  170.8584 C.3     1  UNL1        0.0428
      9 C         141.4335  140.1937  170.0431 C.3     1  UNL1        0.0940
     10 N         141.0508  140.1212  168.5945 N.pl3   1  UNL1       -0.2915
     11 C         139.5567  140.0152  168.5146 C.3     1  UNL1        0.1117
     12 C         137.1183  138.8982  171.2867 C.2     1  UNL1        0.2460
     13 O         138.1139  137.9501  171.8865 O.2     1  UNL1       -0.2701
     14 N         137.5694  139.9343  170.3003 N.am    1  UNL1       -0.3007
     15 H         136.9159  140.5566  169.9067 H       1  UNL1        0.1497
     16 C         135.2479  137.9054  172.7921 C.2     1  UNL1        0.0048
     17 C         135.6716  138.8103  171.6734 C.2     1  UNL1        0.0577
     18 C         144.8326  140.2354  163.9377 C.2     1  UNL1        0.2455
     19 N         144.7324  139.1923  162.8645 N.am    1  UNL1       -0.3252
     20 O         145.8782  141.3070  163.8468 O.2     1  UNL1       -0.2703
     21 H         144.0461  138.4890  162.9241 H       1  UNL1        0.1453
     22 H         145.3529  139.2111  162.1004 H       1  UNL1        0.1453
     23 N         143.2763  142.6943  164.6668 N.pl3   1  UNL1       -0.2978
     24 H         143.9437  143.3651  164.9384 H       1  UNL1        0.1536
     25 C         142.4266  142.9303  163.4535 C.ar    1  UNL1        0.0494
     26 C         143.0510  142.9329  162.0896 C.ar    1  UNL1        0.0148
     27 C         142.2013  143.1689  160.8762 C.ar    1  UNL1        0.0058
     28 C         140.7272  143.4023  161.0266 C.ar    1  UNL1        0.0537
     29 C         140.1028  143.3997  162.3905 C.ar    1  UNL1        0.0058
     30 C         140.9525  143.1637  163.6039 C.ar    1  UNL1        0.0148
     31 C         139.8775  143.6383  159.8132 C.2     1  UNL1        0.2492
     32 O         139.7687  145.0160  159.2302 O.2     1  UNL1       -0.2699
     33 N         139.1366  142.4965  159.1828 N.am    1  UNL1       -0.2709
     34 C         139.2455  141.1187  159.7659 C.3     1  UNL1        0.1258
     35 C         138.5046  139.9768  159.1355 C.3     1  UNL1        0.1637
     36 O         137.6549  140.2128  157.9221 O.3     1  UNL1       -0.3501
     37 C         137.5461  141.5906  157.3391 C.3     1  UNL1        0.1637
     38 C         138.2869  142.7324  157.9695 C.3     1  UNL1        0.1258
@<TRIPOS>BOND
     1    16    17    2
     2    17    12    1
     3    12    13    2
     4    12    14   am
     5     7    14    1
     6     7     8    1
     7     8     9    1
     8     9    10    1
     9    10     1    1
    10     1     2   ar
    11     2     3   ar
    12     3     4   ar
    13     4    18    1
    14    18    19   am
    15    18    20    2
    16     4     5   ar
    17     5    23    1
    18    23    25    1
    19    25    26   ar
    20    26    27   ar
    21    27    28   ar
    22    28    31    1
    23    31    32    2
    24    31    33   am
    25    33    34    1
    26    34    35    1
    27    35    36    1
    28    36    37    1
    29    37    38    1
    30    28    29   ar
    31    29    30   ar
    32     5     6   ar
    33    10    11    1
    34    11     7    1
    35     6     1   ar
    36    30    25   ar
    37    38    33    1
    38    14    15    1
    39    19    21    1
    40    19    22    1
    41    23    24    1
