@<TRIPOS>MOLECULE
*****
 36 41 0 0 0
SMALL
GASTEIGER

@<TRIPOS>ATOM
      1 C         138.5576  140.1786  165.0197 C.ar    1  UNL1       -0.0027
      2 C         138.3010  141.6522  164.9085 C.ar    1  UNL1       -0.0029
      3 C         138.2357  142.3023  163.5583 C.ar    1  UNL1       -0.0026
      4 C         138.4270  141.4788  162.3193 C.ar    1  UNL1        0.0019
      5 C         138.6836  140.0051  162.4305 C.ar    1  UNL1       -0.0200
      6 C         138.7489  139.3550  163.7807 C.ar    1  UNL1       -0.0068
      7 C         138.8321  139.4545  161.0431 C.3     1  UNL1        0.0519
      8 C         138.6673  140.5879  160.0745 C.2     1  UNL1        0.0074
      9 C         138.6572  140.9480  158.6184 C.2     1  UNL1        0.0976
     10 N         138.4006  142.4217  158.5072 N.2     1  UNL1       -0.1526
     11 N         138.2521  142.9723  159.8946 N.2     1  UNL1       -0.1678
     12 C         138.4169  141.8390  160.8632 C.3     1  UNL1        0.1672
     13 C         138.8669  140.0008  157.4744 C.ar    1  UNL1        0.0265
     14 C         138.2763  140.1317  156.1017 C.ar    1  UNL1        0.0376
     15 S         138.7484  138.9681  155.2812 S.2     1  UNL1       -0.0780
     16 C         139.6308  138.1182  156.1467 C.ar    1  UNL1        0.0711
     17 C         139.7040  138.7564  157.5021 C.ar    1  UNL1        0.0168
     18 C         140.3190  136.8523  155.7299 C.1     1  UNL1       -0.0543
     19 C         141.0073  135.5863  155.3131 C.1     1  UNL1       -0.0388
     20 C         141.6956  134.3204  154.8964 C.3     1  UNL1        0.2814
     21 O         141.5255  133.0715  155.7095 O.3     1  UNL1       -0.4612
     22 C         142.6878  132.5098  156.4736 C.ar    1  UNL1        0.1400
     23 C         142.8681  131.0245  156.5799 C.ar    1  UNL1        0.0369
     24 C         144.0303  130.4628  157.3438 C.ar    1  UNL1        0.0031
     25 C         145.0123  131.3865  158.0015 C.ar    1  UNL1        0.0002
     26 C         144.8320  132.8718  157.8951 C.ar    1  UNL1        0.0031
     27 C         143.6698  133.4335  157.1312 C.ar    1  UNL1        0.0369
     28 C         138.6229  139.5284  166.3699 C.3     1  UNL1        0.1202
     29 C         143.1358  140.8204  170.1068 C.3     1  UNL1        0.0901
     30 N         142.0076  140.4974  169.1726 N.3     1  UNL1       -0.2623
     31 C         142.2465  140.4619  167.6922 C.3     1  UNL1        0.0943
     32 C         141.1182  140.1389  166.7579 C.3     1  UNL1        0.1111
     33 N         139.7511  139.8514  167.3041 N.am    1  UNL1       -0.2729
     34 C         139.5122  139.8869  168.7846 C.2     1  UNL1        0.2423
     35 O         138.1451  139.5994  169.3308 O.2     1  UNL1       -0.2733
     36 C         140.6405  140.2099  169.7188 C.3     1  UNL1        0.1587
@<TRIPOS>BOND
     1    29    30    1
     2    30    31    1
     3    31    32    1
     4    32    33    1
     5    33    28    1
     6    28     1    1
     7     1     2   ar
     8     2     3   ar
     9     3     4   ar
    10     4     5   ar
    11     5     6   ar
    12     5     7    1
    13     7     8    1
    14     8     9    2
    15     9    13    1
    16    13    14   ar
    17    14    15   ar
    18    15    16   ar
    19    16    18    1
    20    18    19    3
    21    19    20    1
    22    20    21    1
    23    21    22    1
    24    22    23   ar
    25    23    24   ar
    26    24    25   ar
    27    25    26   ar
    28    26    27   ar
    29    16    17   ar
    30     9    10    1
    31    10    11    2
    32    11    12    1
    33    33    34   am
    34    34    35    2
    35    34    36    1
    36    36    30    1
    37     6     1   ar
    38    12     8    1
    39    12     4    1
    40    17    13   ar
    41    27    22   ar
@<TRIPOS>MOLECULE
*****
 36 41 0 0 0
SMALL
GASTEIGER

@<TRIPOS>ATOM
      1 C         142.5277  136.2626  155.9186 C.ar    1  UNL1       -0.0027
      2 C         141.6493  136.7210  154.7925 C.ar    1  UNL1       -0.0029
      3 C         140.5263  137.6789  155.0595 C.ar    1  UNL1       -0.0026
      4 C         140.2817  138.1783  156.4526 C.ar    1  UNL1        0.0019
      5 C         141.1601  137.7198  157.5787 C.ar    1  UNL1       -0.0200
      6 C         142.2831  136.7620  157.3117 C.ar    1  UNL1       -0.0068
      7 C         140.6806  138.3784  158.8382 C.3     1  UNL1        0.0519
      8 C         139.5058  139.2438  158.4905 C.2     1  UNL1        0.0074
      9 C         138.4834  140.1857  159.0541 C.2     1  UNL1        0.0976
     10 N         137.6050  140.6441  157.9279 N.2     1  UNL1       -0.1526
     11 N         138.0846  139.9856  156.6684 N.2     1  UNL1       -0.1678
     12 C         139.2593  139.1202  157.0161 C.3     1  UNL1        0.1672
     13 C         138.3609  140.5969  160.4914 C.ar    1  UNL1        0.0265
     14 C         138.2072  142.0008  160.9968 C.ar    1  UNL1        0.0376
     15 S         138.1220  141.9479  162.4934 S.2     1  UNL1       -0.0780
     16 C         138.2229  140.5113  162.9130 C.ar    1  UNL1        0.0711
     17 C         138.3706  139.6764  161.6757 C.ar    1  UNL1        0.0168
     18 C         138.1832  139.9996  164.3224 C.1     1  UNL1       -0.0543
     19 C         138.1434  139.4878  165.7319 C.1     1  UNL1       -0.0388
     20 C         138.1037  138.9761  167.1413 C.3     1  UNL1        0.2814
     21 O         139.0797  139.4948  168.1554 O.3     1  UNL1       -0.4612
     22 C         140.2864  140.2659  167.7089 C.ar    1  UNL1        0.1400
     23 C         140.3176  141.7588  167.8519 C.ar    1  UNL1        0.0369
     24 C         141.5242  142.5299  167.4054 C.ar    1  UNL1        0.0031
     25 C         142.6996  141.8082  166.8160 C.ar    1  UNL1        0.0002
     26 C         142.6685  140.3154  166.6731 C.ar    1  UNL1        0.0031
     27 C         141.4618  139.5442  167.1195 C.ar    1  UNL1        0.0369
     28 C         143.6508  135.3047  155.6516 C.3     1  UNL1        0.1202
     29 C         142.6607  129.3903  155.8512 C.3     1  UNL1        0.0901
     30 N         142.9082  130.8689  155.8013 N.3     1  UNL1       -0.2623
     31 C         142.7204  131.6177  154.5153 C.3     1  UNL1        0.0943
     32 C         142.9680  133.0964  154.4654 C.3     1  UNL1        0.1111
     33 N         143.4033  133.8261  155.7015 N.am    1  UNL1       -0.2729
     34 C         143.5910  133.0772  156.9876 C.2     1  UNL1        0.2423
     35 O         144.0263  133.8069  158.2238 O.2     1  UNL1       -0.2733
     36 C         143.3435  131.5986  157.0375 C.3     1  UNL1        0.1587
@<TRIPOS>BOND
     1    29    30    1
     2    30    31    1
     3    31    32    1
     4    32    33    1
     5    33    28    1
     6    28     1    1
     7     1     2   ar
     8     2     3   ar
     9     3     4   ar
    10     4     5   ar
    11     5     6   ar
    12     5     7    1
    13     7     8    1
    14     8     9    2
    15     9    13    1
    16    13    14   ar
    17    14    15   ar
    18    15    16   ar
    19    16    18    1
    20    18    19    3
    21    19    20    1
    22    20    21    1
    23    21    22    1
    24    22    23   ar
    25    23    24   ar
    26    24    25   ar
    27    25    26   ar
    28    26    27   ar
    29    16    17   ar
    30     9    10    1
    31    10    11    2
    32    11    12    1
    33    33    34   am
    34    34    35    2
    35    34    36    1
    36    36    30    1
    37     6     1   ar
    38    12     8    1
    39    12     4    1
    40    17    13   ar
    41    27    22   ar
@<TRIPOS>MOLECULE
*****
 36 41 0 0 0
SMALL
GASTEIGER

@<TRIPOS>ATOM
      1 C         142.3222  137.0259  156.8471 C.ar    1  UNL1       -0.0027
      2 C         140.9833  137.2978  156.2280 C.ar    1  UNL1       -0.0029
      3 C         139.9109  137.9759  157.0281 C.ar    1  UNL1       -0.0026
      4 C         140.1775  138.3820  158.4473 C.ar    1  UNL1        0.0019
      5 C         141.5164  138.1101  159.0663 C.ar    1  UNL1       -0.0200
      6 C         142.5888  137.4321  158.2662 C.ar    1  UNL1       -0.0068
      7 C         141.4877  138.6214  160.4762 C.3     1  UNL1        0.0519
      8 C         140.1310  139.2094  160.7285 C.2     1  UNL1        0.0074
      9 C         139.2747  139.8888  161.7558 C.2     1  UNL1        0.0976
     10 N         137.9358  140.1607  161.1367 N.2     1  UNL1       -0.1526
     11 N         137.9645  139.6494  159.7269 N.2     1  UNL1       -0.1678
     12 C         139.3212  139.0615  159.4746 C.3     1  UNL1        0.1672
     13 C         139.6854  140.2354  163.1562 C.ar    1  UNL1        0.0265
     14 C         140.8850  141.0461  163.5482 C.ar    1  UNL1        0.0376
     15 S         140.9095  141.1439  165.0448 S.2     1  UNL1       -0.0780
     16 C         139.7250  140.3936  165.5778 C.ar    1  UNL1        0.0711
     17 C         138.9685  139.8321  164.4106 C.ar    1  UNL1        0.0168
     18 C         139.3610  140.2329  167.0240 C.1     1  UNL1       -0.0543
     19 C         138.9969  140.0723  168.4703 C.1     1  UNL1       -0.0388
     20 C         138.6329  139.9117  169.9166 C.3     1  UNL1        0.2814
     21 O         139.5140  140.4953  170.9810 O.3     1  UNL1       -0.4612
     22 C         140.8209  141.1302  170.6081 C.ar    1  UNL1        0.1400
     23 C         142.0276  140.2739  170.3625 C.ar    1  UNL1        0.0369
     24 C         143.3345  140.9087  169.9895 C.ar    1  UNL1        0.0031
     25 C         143.4345  142.3999  169.8622 C.ar    1  UNL1        0.0002
     26 C         142.2277  143.2563  170.1078 C.ar    1  UNL1        0.0031
     27 C         140.9209  142.6214  170.4807 C.ar    1  UNL1        0.0369
     28 C         143.3947  136.3478  156.0470 C.3     1  UNL1        0.1202
     29 C         142.4947  130.8163  153.9042 C.3     1  UNL1        0.0901
     30 N         142.7197  132.1991  154.4399 N.3     1  UNL1       -0.2623
     31 C         142.4084  133.3934  153.5875 C.3     1  UNL1        0.0943
     32 C         142.6334  134.7764  154.1232 C.3     1  UNL1        0.1111
     33 N         143.1697  134.9649  155.5113 N.am    1  UNL1       -0.2729
     34 C         143.4809  133.7705  156.3637 C.2     1  UNL1        0.2423
     35 O         144.0172  133.9591  157.7518 O.2     1  UNL1       -0.2733
     36 C         143.2559  132.3877  155.8280 C.3     1  UNL1        0.1587
@<TRIPOS>BOND
     1    29    30    1
     2    30    31    1
     3    31    32    1
     4    32    33    1
     5    33    28    1
     6    28     1    1
     7     1     2   ar
     8     2     3   ar
     9     3     4   ar
    10     4     5   ar
    11     5     6   ar
    12     5     7    1
    13     7     8    1
    14     8     9    2
    15     9    13    1
    16    13    14   ar
    17    14    15   ar
    18    15    16   ar
    19    16    18    1
    20    18    19    3
    21    19    20    1
    22    20    21    1
    23    21    22    1
    24    22    23   ar
    25    23    24   ar
    26    24    25   ar
    27    25    26   ar
    28    26    27   ar
    29    16    17   ar
    30     9    10    1
    31    10    11    2
    32    11    12    1
    33    33    34   am
    34    34    35    2
    35    34    36    1
    36    36    30    1
    37     6     1   ar
    38    12     8    1
    39    12     4    1
    40    17    13   ar
    41    27    22   ar
@<TRIPOS>MOLECULE
*****
 36 41 0 0 0
SMALL
GASTEIGER

@<TRIPOS>ATOM
      1 C         143.5261  143.0310  164.7349 C.ar    1  UNL1       -0.0027
      2 C         142.9325  144.3490  164.3341 C.ar    1  UNL1       -0.0029
      3 C         142.6809  144.6488  162.8861 C.ar    1  UNL1       -0.0026
      4 C         143.0228  143.6307  161.8390 C.ar    1  UNL1        0.0019
      5 C         143.6163  142.3128  162.2398 C.ar    1  UNL1       -0.0200
      6 C         143.8680  142.0130  163.6878 C.ar    1  UNL1       -0.0068
      7 C         143.8493  141.5112  160.9935 C.3     1  UNL1        0.0519
      8 C         143.3997  142.3337  159.8225 C.2     1  UNL1        0.0074
      9 C         143.2658  142.3466  158.3285 C.2     1  UNL1        0.0976
     10 N         142.6722  143.6645  157.9277 N.2     1  UNL1       -0.1526
     11 N         142.4393  144.4661  159.1740 N.2     1  UNL1       -0.1678
     12 C         142.8889  143.6437  160.3449 C.3     1  UNL1        0.1672
     13 C         143.6568  141.2364  157.3987 C.ar    1  UNL1        0.0265
     14 C         144.7538  141.2874  156.3768 C.ar    1  UNL1        0.0376
     15 S         144.7945  139.9628  155.6740 S.2     1  UNL1       -0.0780
     16 C         143.7227  139.0933  156.2615 C.ar    1  UNL1        0.0711
     17 C         143.0196  139.8804  157.3273 C.ar    1  UNL1        0.0168
     18 C         143.4090  137.6840  155.8545 C.1     1  UNL1       -0.0543
     19 C         143.0954  136.2747  155.4476 C.1     1  UNL1       -0.0388
     20 C         142.7817  134.8655  155.0406 C.3     1  UNL1        0.2814
     21 O         142.1981  133.9091  156.0379 O.3     1  UNL1       -0.4612
     22 C         143.0560  132.8346  156.6376 C.ar    1  UNL1        0.1400
     23 C         144.2507  133.2038  157.4661 C.ar    1  UNL1        0.0369
     24 C         145.1086  132.1294  158.0657 C.ar    1  UNL1        0.0031
     25 C         144.7718  130.6857  157.8368 C.ar    1  UNL1        0.0002
     26 C         143.5772  130.3165  157.0083 C.ar    1  UNL1        0.0031
     27 C         142.7193  131.3909  156.4087 C.ar    1  UNL1        0.0369
     28 C         143.7778  142.7312  166.1830 C.3     1  UNL1        0.1202
     29 C         139.3414  140.6143  169.6235 C.3     1  UNL1        0.0901
     30 N         140.4505  141.1435  168.7634 N.3     1  UNL1       -0.2623
     31 C         140.3046  141.1486  167.2705 C.3     1  UNL1        0.0943
     32 C         141.4137  141.6779  166.4103 C.3     1  UNL1        0.1111
     33 N         142.6687  142.2019  167.0431 N.am    1  UNL1       -0.2729
     34 C         142.8146  142.1968  168.5360 C.2     1  UNL1        0.2423
     35 O         144.0695  142.7209  169.1688 O.2     1  UNL1       -0.2733
     36 C         141.7055  141.6676  169.3961 C.3     1  UNL1        0.1587
@<TRIPOS>BOND
     1    29    30    1
     2    30    31    1
     3    31    32    1
     4    32    33    1
     5    33    28    1
     6    28     1    1
     7     1     2   ar
     8     2     3   ar
     9     3     4   ar
    10     4     5   ar
    11     5     6   ar
    12     5     7    1
    13     7     8    1
    14     8     9    2
    15     9    13    1
    16    13    14   ar
    17    14    15   ar
    18    15    16   ar
    19    16    18    1
    20    18    19    3
    21    19    20    1
    22    20    21    1
    23    21    22    1
    24    22    23   ar
    25    23    24   ar
    26    24    25   ar
    27    25    26   ar
    28    26    27   ar
    29    16    17   ar
    30     9    10    1
    31    10    11    2
    32    11    12    1
    33    33    34   am
    34    34    35    2
    35    34    36    1
    36    36    30    1
    37     6     1   ar
    38    12     8    1
    39    12     4    1
    40    17    13   ar
    41    27    22   ar
@<TRIPOS>MOLECULE
*****
 36 41 0 0 0
SMALL
GASTEIGER

@<TRIPOS>ATOM
      1 C         143.4397  132.8067  155.5694 C.ar    1  UNL1       -0.0027
      2 C         142.2342  132.8089  154.6768 C.ar    1  UNL1       -0.0029
      3 C         141.3125  133.9923  154.6642 C.ar    1  UNL1       -0.0026
      4 C         141.5963  135.1733  155.5443 C.ar    1  UNL1        0.0019
      5 C         142.8018  135.1711  156.4369 C.ar    1  UNL1       -0.0200
      6 C         143.7235  133.9877  156.4495 C.ar    1  UNL1       -0.0068
      7 C         142.8240  136.4686  157.1891 C.3     1  UNL1        0.0519
      8 C         141.6322  137.2729  156.7614 C.2     1  UNL1        0.0074
      9 C         140.9095  138.5718  156.9619 C.2     1  UNL1        0.0976
     10 N         139.7040  138.5741  156.0693 N.2     1  UNL1       -0.1526
     11 N         139.6818  137.2765  155.3171 N.2     1  UNL1       -0.1678
     12 C         140.8735  136.4723  155.7448 C.3     1  UNL1        0.1672
     13 C         141.3201  139.6749  157.8918 C.ar    1  UNL1        0.0265
     14 C         142.5584  139.6995  158.7381 C.ar    1  UNL1        0.0376
     15 S         142.5681  140.9868  159.5080 S.2     1  UNL1       -0.0780
     16 C         141.3359  141.7578  159.1376 C.ar    1  UNL1        0.0711
     17 C         140.5646  140.9470  158.1387 C.ar    1  UNL1        0.0168
     18 C         140.9438  143.1033  159.6721 C.1     1  UNL1       -0.0543
     19 C         140.5517  144.4489  160.2067 C.1     1  UNL1       -0.0388
     20 C         140.1596  145.7945  160.7412 C.3     1  UNL1        0.2814
     21 O         139.0854  145.9039  161.7824 O.3     1  UNL1       -0.4612
     22 C         139.0711  144.9591  162.9474 C.ar    1  UNL1        0.1400
     23 C         137.8190  144.2062  163.2872 C.ar    1  UNL1        0.0369
     24 C         137.8047  143.2615  164.4521 C.ar    1  UNL1        0.0031
     25 C         139.0424  143.0695  165.2773 C.ar    1  UNL1        0.0002
     26 C         140.2946  143.8224  164.9376 C.ar    1  UNL1        0.0031
     27 C         140.3089  144.7671  163.7726 C.ar    1  UNL1        0.0369
     28 C         144.3614  131.6233  155.5819 C.3     1  UNL1        0.1202
     29 C         143.3595  127.0802  159.3708 C.3     1  UNL1        0.0901
     30 N         143.6100  128.2160  158.4236 N.3     1  UNL1       -0.2623
     31 C         142.9941  128.2016  157.0560 C.3     1  UNL1        0.0943
     32 C         143.2446  129.3374  156.1087 C.3     1  UNL1        0.1111
     33 N         144.1109  130.4875  156.5291 N.am    1  UNL1       -0.2729
     34 C         144.7268  130.5018  157.8969 C.2     1  UNL1        0.2423
     35 O         145.5931  131.6519  158.3173 O.2     1  UNL1       -0.2733
     36 C         144.4763  129.3661  158.8441 C.3     1  UNL1        0.1587
@<TRIPOS>BOND
     1    29    30    1
     2    30    31    1
     3    31    32    1
     4    32    33    1
     5    33    28    1
     6    28     1    1
     7     1     2   ar
     8     2     3   ar
     9     3     4   ar
    10     4     5   ar
    11     5     6   ar
    12     5     7    1
    13     7     8    1
    14     8     9    2
    15     9    13    1
    16    13    14   ar
    17    14    15   ar
    18    15    16   ar
    19    16    18    1
    20    18    19    3
    21    19    20    1
    22    20    21    1
    23    21    22    1
    24    22    23   ar
    25    23    24   ar
    26    24    25   ar
    27    25    26   ar
    28    26    27   ar
    29    16    17   ar
    30     9    10    1
    31    10    11    2
    32    11    12    1
    33    33    34   am
    34    34    35    2
    35    34    36    1
    36    36    30    1
    37     6     1   ar
    38    12     8    1
    39    12     4    1
    40    17    13   ar
    41    27    22   ar
@<TRIPOS>MOLECULE
*****
 36 41 0 0 0
SMALL
GASTEIGER

@<TRIPOS>ATOM
      1 C         142.4408  132.9566  153.9129 C.ar    1  UNL1       -0.0027
      2 C         141.8887  134.0035  152.9916 C.ar    1  UNL1       -0.0029
      3 C         141.7307  135.4162  153.4705 C.ar    1  UNL1       -0.0026
      4 C         142.1248  135.7818  154.8709 C.ar    1  UNL1        0.0019
      5 C         142.6770  134.7349  155.7922 C.ar    1  UNL1       -0.0200
      6 C         142.8350  133.3222  155.3133 C.ar    1  UNL1       -0.0068
      7 C         142.9773  135.3878  157.1088 C.3     1  UNL1        0.0519
      8 C         142.6107  136.8384  157.0012 C.2     1  UNL1        0.0074
      9 C         142.5697  138.1384  157.7484 C.2     1  UNL1        0.0976
     10 N         142.0176  139.1853  156.8270 N.2     1  UNL1       -0.1526
     11 N         141.7173  138.5324  155.5104 N.2     1  UNL1       -0.1678
     12 C         142.0838  137.0819  155.6181 C.3     1  UNL1        0.1672
     13 C         143.0046  138.3536  159.1678 C.ar    1  UNL1        0.0265
     14 C         142.9485  137.3384  160.2707 C.ar    1  UNL1        0.0376
     15 S         143.4812  137.9792  161.5179 S.2     1  UNL1       -0.0780
     16 C         143.8664  139.3904  161.1859 C.ar    1  UNL1        0.0711
     17 C         143.5718  139.6217  159.7335 C.ar    1  UNL1        0.0168
     18 C         144.4446  140.3939  162.1390 C.1     1  UNL1       -0.0543
     19 C         145.0228  141.3976  163.0922 C.1     1  UNL1       -0.0388
     20 C         145.6010  142.4012  164.0453 C.3     1  UNL1        0.2814
     21 O         144.7278  143.0367  165.0863 O.3     1  UNL1       -0.4612
     22 C         143.3815  143.5787  164.7068 C.ar    1  UNL1        0.1400
     23 C         142.1374  142.8365  165.0955 C.ar    1  UNL1        0.0369
     24 C         140.7912  143.3785  164.7161 C.ar    1  UNL1        0.0031
     25 C         140.6892  144.6628  163.9479 C.ar    1  UNL1        0.0002
     26 C         141.9334  145.4050  163.5591 C.ar    1  UNL1        0.0031
     27 C         143.2795  144.8630  163.9386 C.ar    1  UNL1        0.0369
     28 C         142.5988  131.5438  153.4340 C.3     1  UNL1        0.1202
     29 C         140.0278  127.0452  156.4591 C.3     1  UNL1        0.0901
     30 N         140.6705  128.1698  155.7028 N.3     1  UNL1       -0.2623
     31 C         142.1374  128.4394  155.8629 C.3     1  UNL1        0.0943
     32 C         142.7802  129.5641  155.1066 C.3     1  UNL1        0.1111
     33 N         141.9561  130.4192  154.1903 N.am    1  UNL1       -0.2729
     34 C         140.4892  130.1496  154.0303 C.2     1  UNL1        0.2423
     35 O         139.6650  131.0048  153.1140 O.2     1  UNL1       -0.2733
     36 C         139.8464  129.0250  154.7866 C.3     1  UNL1        0.1587
@<TRIPOS>BOND
     1    29    30    1
     2    30    31    1
     3    31    32    1
     4    32    33    1
     5    33    28    1
     6    28     1    1
     7     1     2   ar
     8     2     3   ar
     9     3     4   ar
    10     4     5   ar
    11     5     6   ar
    12     5     7    1
    13     7     8    1
    14     8     9    2
    15     9    13    1
    16    13    14   ar
    17    14    15   ar
    18    15    16   ar
    19    16    18    1
    20    18    19    3
    21    19    20    1
    22    20    21    1
    23    21    22    1
    24    22    23   ar
    25    23    24   ar
    26    24    25   ar
    27    25    26   ar
    28    26    27   ar
    29    16    17   ar
    30     9    10    1
    31    10    11    2
    32    11    12    1
    33    33    34   am
    34    34    35    2
    35    34    36    1
    36    36    30    1
    37     6     1   ar
    38    12     8    1
    39    12     4    1
    40    17    13   ar
    41    27    22   ar
@<TRIPOS>MOLECULE
*****
 36 41 0 0 0
SMALL
GASTEIGER

@<TRIPOS>ATOM
      1 C         143.1615  133.9873  155.7386 C.ar    1  UNL1       -0.0027
      2 C         141.9312  133.9883  154.8806 C.ar    1  UNL1       -0.0029
      3 C         140.9161  135.0829  155.0263 C.ar    1  UNL1       -0.0026
      4 C         141.1313  136.1766  156.0301 C.ar    1  UNL1        0.0019
      5 C         142.3616  136.1756  156.8881 C.ar    1  UNL1       -0.0200
      6 C         143.3767  135.0810  156.7424 C.ar    1  UNL1       -0.0068
      7 C         142.3025  137.3769  157.7844 C.3     1  UNL1        0.0519
      8 C         141.0357  138.1204  157.4803 C.2     1  UNL1        0.0074
      9 C         140.2162  139.3223  157.8463 C.2     1  UNL1        0.0976
     10 N         138.9860  139.3232  156.9883 N.2     1  UNL1       -0.1526
     11 N         139.0450  138.1219  156.0920 N.2     1  UNL1       -0.1678
     12 C         140.3118  137.3785  156.3960 C.3     1  UNL1        0.1672
     13 C         140.5658  140.3438  158.8876 C.ar    1  UNL1        0.0265
     14 C         140.7365  141.8160  158.6561 C.ar    1  UNL1        0.0376
     15 S         141.0822  142.4546  159.9686 S.2     1  UNL1       -0.0780
     16 C         141.1251  141.3771  161.0113 C.ar    1  UNL1        0.0711
     17 C         140.8059  140.0726  160.3432 C.ar    1  UNL1        0.0168
     18 C         141.4331  141.5702  162.4666 C.1     1  UNL1       -0.0543
     19 C         141.7410  141.7634  163.9219 C.1     1  UNL1       -0.0388
     20 C         142.0490  141.9565  165.3771 C.3     1  UNL1        0.2814
     21 O         141.7213  140.8746  166.3631 O.3     1  UNL1       -0.4612
     22 C         140.7093  139.8236  166.0146 C.ar    1  UNL1        0.1400
     23 C         141.1288  138.6024  165.2513 C.ar    1  UNL1        0.0369
     24 C         140.1169  137.5514  164.9027 C.ar    1  UNL1        0.0031
     25 C         138.6855  137.7217  165.3174 C.ar    1  UNL1        0.0002
     26 C         138.2660  138.9430  166.0807 C.ar    1  UNL1        0.0031
     27 C         139.2779  139.9939  166.4293 C.ar    1  UNL1        0.0369
     28 C         144.1767  132.8926  155.5930 C.3     1  UNL1        0.1202
     29 C         143.4376  127.7069  158.5188 C.3     1  UNL1        0.0901
     30 N         143.6224  129.0033  157.7874 N.3     1  UNL1       -0.2623
     31 C         142.8822  129.2542  156.5071 C.3     1  UNL1        0.0943
     32 C         143.0669  130.5506  155.7756 C.3     1  UNL1        0.1111
     33 N         143.9919  131.5962  156.3244 N.am    1  UNL1       -0.2729
     34 C         144.7321  131.3453  157.6048 C.2     1  UNL1        0.2423
     35 O         145.6571  132.3909  158.1536 O.2     1  UNL1       -0.2733
     36 C         144.5473  130.0489  158.3362 C.3     1  UNL1        0.1587
@<TRIPOS>BOND
     1    29    30    1
     2    30    31    1
     3    31    32    1
     4    32    33    1
     5    33    28    1
     6    28     1    1
     7     1     2   ar
     8     2     3   ar
     9     3     4   ar
    10     4     5   ar
    11     5     6   ar
    12     5     7    1
    13     7     8    1
    14     8     9    2
    15     9    13    1
    16    13    14   ar
    17    14    15   ar
    18    15    16   ar
    19    16    18    1
    20    18    19    3
    21    19    20    1
    22    20    21    1
    23    21    22    1
    24    22    23   ar
    25    23    24   ar
    26    24    25   ar
    27    25    26   ar
    28    26    27   ar
    29    16    17   ar
    30     9    10    1
    31    10    11    2
    32    11    12    1
    33    33    34   am
    34    34    35    2
    35    34    36    1
    36    36    30    1
    37     6     1   ar
    38    12     8    1
    39    12     4    1
    40    17    13   ar
    41    27    22   ar
@<TRIPOS>MOLECULE
*****
 36 41 0 0 0
SMALL
GASTEIGER

@<TRIPOS>ATOM
      1 C         142.7983  135.0534  155.9898 C.ar    1  UNL1       -0.0027
      2 C         141.7127  135.0945  154.9555 C.ar    1  UNL1       -0.0029
      3 C         140.6151  136.1115  155.0602 C.ar    1  UNL1       -0.0026
      4 C         140.6031  137.0874  156.1992 C.ar    1  UNL1        0.0019
      5 C         141.6887  137.0464  157.2335 C.ar    1  UNL1       -0.0200
      6 C         142.7863  136.0294  157.1288 C.ar    1  UNL1       -0.0068
      7 C         141.4149  138.1281  158.2360 C.3     1  UNL1        0.0519
      8 C         140.1601  138.8376  157.8213 C.2     1  UNL1        0.0074
      9 C         139.2154  139.9446  158.1846 C.2     1  UNL1        0.0976
     10 N         138.1298  139.9857  157.1504 N.2     1  UNL1       -0.1526
     11 N         138.4036  138.9040  156.1479 N.2     1  UNL1       -0.1678
     12 C         139.6583  138.1945  156.5625 C.3     1  UNL1        0.1672
     13 C         139.3352  140.8514  159.3735 C.ar    1  UNL1        0.0265
     14 C         139.0645  142.3268  159.3880 C.ar    1  UNL1        0.0376
     15 S         139.3088  142.8292  160.7800 S.2     1  UNL1       -0.0780
     16 C         139.7305  141.6644  161.6259 C.ar    1  UNL1        0.0711
     17 C         139.7468  140.4421  160.7566 C.ar    1  UNL1        0.0168
     18 C         140.0753  141.7133  163.0849 C.1     1  UNL1       -0.0543
     19 C         140.4200  141.7623  164.5440 C.1     1  UNL1       -0.0388
     20 C         140.7648  141.8112  166.0030 C.3     1  UNL1        0.2814
     21 O         142.0876  141.2880  166.4790 O.3     1  UNL1       -0.4612
     22 C         143.2752  141.3067  165.5628 C.ar    1  UNL1        0.1400
     23 C         143.7928  140.0252  164.9797 C.ar    1  UNL1        0.0369
     24 C         144.9803  140.0438  164.0636 C.ar    1  UNL1        0.0031
     25 C         145.6503  141.3439  163.7305 C.ar    1  UNL1        0.0002
     26 C         145.1326  142.6253  164.3136 C.ar    1  UNL1        0.0031
     27 C         143.9451  142.6067  165.2297 C.ar    1  UNL1        0.0369
     28 C         143.8959  134.0364  155.8851 C.3     1  UNL1        0.1202
     29 C         142.8033  128.2934  157.2354 C.3     1  UNL1        0.0901
     30 N         143.0764  129.7291  156.8978 N.3     1  UNL1       -0.2623
     31 C         142.3638  130.3780  155.7484 C.3     1  UNL1        0.0943
     32 C         142.6370  131.8138  155.4108 C.3     1  UNL1        0.1111
     33 N         143.6227  132.6007  156.2226 N.am    1  UNL1       -0.2729
     34 C         144.3354  131.9517  157.3721 C.2     1  UNL1        0.2423
     35 O         145.3212  132.7386  158.1839 O.2     1  UNL1       -0.2733
     36 C         144.0622  130.5160  157.7096 C.3     1  UNL1        0.1587
@<TRIPOS>BOND
     1    29    30    1
     2    30    31    1
     3    31    32    1
     4    32    33    1
     5    33    28    1
     6    28     1    1
     7     1     2   ar
     8     2     3   ar
     9     3     4   ar
    10     4     5   ar
    11     5     6   ar
    12     5     7    1
    13     7     8    1
    14     8     9    2
    15     9    13    1
    16    13    14   ar
    17    14    15   ar
    18    15    16   ar
    19    16    18    1
    20    18    19    3
    21    19    20    1
    22    20    21    1
    23    21    22    1
    24    22    23   ar
    25    23    24   ar
    26    24    25   ar
    27    25    26   ar
    28    26    27   ar
    29    16    17   ar
    30     9    10    1
    31    10    11    2
    32    11    12    1
    33    33    34   am
    34    34    35    2
    35    34    36    1
    36    36    30    1
    37     6     1   ar
    38    12     8    1
    39    12     4    1
    40    17    13   ar
    41    27    22   ar
@<TRIPOS>MOLECULE
*****
 36 41 0 0 0
SMALL
GASTEIGER

@<TRIPOS>ATOM
      1 C         142.0580  136.9269  156.6601 C.ar    1  UNL1       -0.0027
      2 C         140.8096  137.2669  155.9012 C.ar    1  UNL1       -0.0029
      3 C         139.7377  138.0906  156.5511 C.ar    1  UNL1       -0.0026
      4 C         139.9141  138.5744  157.9599 C.ar    1  UNL1        0.0019
      5 C         141.1625  138.2345  158.7188 C.ar    1  UNL1       -0.0200
      6 C         142.2344  137.4107  158.0690 C.ar    1  UNL1       -0.0068
      7 C         141.0565  138.8475  160.0838 C.3     1  UNL1        0.0519
      8 C         139.7426  139.5663  160.1684 C.2     1  UNL1        0.0074
      9 C         138.8651  140.3893  161.0643 C.2     1  UNL1        0.0976
     10 N         137.6168  140.7292  160.3053 N.2     1  UNL1       -0.1526
     11 N         137.7228  140.1163  158.9404 N.2     1  UNL1       -0.1678
     12 C         139.0366  139.3975  158.8558 C.3     1  UNL1        0.1672
     13 C         139.1806  140.8003  162.4720 C.ar    1  UNL1        0.0265
     14 C         138.1941  140.9311  163.5944 C.ar    1  UNL1        0.0376
     15 S         138.9418  141.3642  164.8205 S.2     1  UNL1       -0.0780
     16 C         140.3904  141.5011  164.4559 C.ar    1  UNL1        0.0711
     17 C         140.5380  141.1525  163.0044 C.ar    1  UNL1        0.0168
     18 C         141.4971  141.9140  165.3804 C.1     1  UNL1       -0.0543
     19 C         142.6038  142.3269  166.3049 C.1     1  UNL1       -0.0388
     20 C         143.7105  142.7399  167.2294 C.3     1  UNL1        0.2814
     21 O         143.5281  142.6291  168.7141 O.3     1  UNL1       -0.4612
     22 C         142.2817  142.0086  169.2724 C.ar    1  UNL1        0.1400
     23 C         142.2096  140.5244  169.4771 C.ar    1  UNL1        0.0369
     24 C         140.9633  139.9039  170.0353 C.ar    1  UNL1        0.0031
     25 C         139.7891  140.7676  170.3889 C.ar    1  UNL1        0.0002
     26 C         139.8611  142.2519  170.1841 C.ar    1  UNL1        0.0031
     27 C         141.1074  142.8724  169.6259 C.ar    1  UNL1        0.0369
     28 C         143.1299  136.1031  156.0103 C.3     1  UNL1        0.1202
     29 C         142.3586  130.1952  155.3023 C.3     1  UNL1        0.0901
     30 N         142.5514  131.6722  155.4793 N.3     1  UNL1       -0.2623
     31 C         142.2900  132.6051  154.3343 C.3     1  UNL1        0.0943
     32 C         142.4829  134.0822  154.5112 C.3     1  UNL1        0.1111
     33 N         142.9371  134.6261  155.8333 N.am    1  UNL1       -0.2729
     34 C         143.1985  133.6931  156.9784 C.2     1  UNL1        0.2423
     35 O         143.6527  134.2370  158.3004 O.2     1  UNL1       -0.2733
     36 C         143.0056  132.2161  156.8014 C.3     1  UNL1        0.1587
@<TRIPOS>BOND
     1    29    30    1
     2    30    31    1
     3    31    32    1
     4    32    33    1
     5    33    28    1
     6    28     1    1
     7     1     2   ar
     8     2     3   ar
     9     3     4   ar
    10     4     5   ar
    11     5     6   ar
    12     5     7    1
    13     7     8    1
    14     8     9    2
    15     9    13    1
    16    13    14   ar
    17    14    15   ar
    18    15    16   ar
    19    16    18    1
    20    18    19    3
    21    19    20    1
    22    20    21    1
    23    21    22    1
    24    22    23   ar
    25    23    24   ar
    26    24    25   ar
    27    25    26   ar
    28    26    27   ar
    29    16    17   ar
    30     9    10    1
    31    10    11    2
    32    11    12    1
    33    33    34   am
    34    34    35    2
    35    34    36    1
    36    36    30    1
    37     6     1   ar
    38    12     8    1
    39    12     4    1
    40    17    13   ar
    41    27    22   ar
