@<TRIPOS>MOLECULE
*****
 33 36 0 0 0
SMALL
GASTEIGER

@<TRIPOS>ATOM
      1 C         142.4569  141.3874  163.1708 C.3     1  UNL1        0.0954
      2 C         140.9696  141.4233  163.3621 C.3     1  UNL1        0.0371
      3 C         140.3930  141.5115  164.7441 C.3     1  UNL1        0.0841
      4 N         138.9057  141.5474  164.9353 N.3     1  UNL1       -0.3199
      5 C         141.3038  141.5640  165.9348 C.3     1  UNL1        0.1540
      6 O         142.7911  141.5282  165.7435 O.3     1  UNL1       -0.3432
      7 C         143.3676  141.4399  164.3615 C.3     1  UNL1        0.2247
      8 H         138.4448  141.5034  164.0264 H       1  UNL1        0.1189
      9 H         138.6443  142.4129  165.4075 H       1  UNL1        0.1189
     10 N         144.8078  141.0274  157.5357 N.ar    1  UNL1       -0.1303
     11 C         144.6504  142.2792  158.3471 C.ar    1  UNL1        0.1195
     12 C         144.0328  141.9048  159.6617 C.ar    1  UNL1        0.0312
     13 C         143.8084  140.4217  159.6629 C.ar    1  UNL1        0.0954
     14 N         144.2874  139.8795  158.3489 N.ar    1  UNL1       -0.1519
     15 C         143.1908  140.0474  160.9776 C.3     1  UNL1        0.1205
     16 N         143.0334  141.2991  161.7889 N.3     1  UNL1       -0.2625
     17 C         143.5538  142.4471  160.9757 C.3     1  UNL1        0.1024
     18 C         145.9609  140.8508  154.7718 C.3     1  UNL1        0.2042
     19 S         145.3844  140.9391  156.1537 S.O2    1  UNL1        0.0828
     20 O         145.2529  139.4454  156.1943 O.2     1  UNL1       -0.1508
     21 O         145.5158  142.4328  156.1131 O.2     1  UNL1       -0.1508
     22 C         140.7273  141.6523  167.3167 C.ar    1  UNL1        0.0355
     23 C         140.8359  142.9303  168.0945 C.ar    1  UNL1        0.0300
     24 C         140.2594  143.0186  169.4764 C.ar    1  UNL1        0.1400
     25 F         140.3681  144.2966  170.2542 F       1  UNL1       -0.2042
     26 C         139.5742  141.8289  170.0806 C.ar    1  UNL1        0.0319
     27 C         139.4655  140.5509  169.3029 C.ar    1  UNL1        0.0317
     28 C         140.0420  140.4626  167.9209 C.ar    1  UNL1        0.1386
     29 F         139.9333  139.1846  167.1432 F       1  UNL1       -0.2044
     30 C         144.8550  141.4041  164.1703 C.3     1  UNL1        0.4234
     31 F         146.3423  141.3682  163.9790 F       1  UNL1       -0.1674
     32 F         144.8811  142.9019  164.0929 F       1  UNL1       -0.1674
     33 F         144.8288  139.9063  164.2476 F       1  UNL1       -0.1674
@<TRIPOS>BOND
     1    18    19    1
     2    19    20    2
     3    19    21    2
     4    19    10    1
     5    10    11   ar
     6    11    12   ar
     7    12    13   ar
     8    13    14   ar
     9    13    15    1
    10    15    16    1
    11     1    16    1
    12     1     2    1
    13     2     3    1
    14     3     4    1
    15     3     5    1
    16     5    22    1
    17    22    23   ar
    18    23    24   ar
    19    24    25    1
    20    24    26   ar
    21    26    27   ar
    22    27    28   ar
    23    28    29    1
    24     5     6    1
    25     6     7    1
    26     7    30    1
    27    30    31    1
    28    30    32    1
    29    30    33    1
    30    16    17    1
    31    14    10   ar
    32     7     1    1
    33    17    12    1
    34    28    22   ar
    35     4     8    1
    36     4     9    1
@<TRIPOS>MOLECULE
*****
 33 36 0 0 0
SMALL
GASTEIGER

@<TRIPOS>ATOM
      1 C         140.6786  142.8512  163.9519 C.3     1  UNL1        0.0954
      2 C         142.0074  142.9595  164.6393 C.3     1  UNL1        0.0371
      3 C         142.1546  142.5088  166.0623 C.3     1  UNL1        0.0841
      4 N         143.4835  142.6171  166.7497 N.3     1  UNL1       -0.3199
      5 C         140.9731  141.9497  166.7980 C.3     1  UNL1        0.1540
      6 O         139.6443  141.8414  166.1106 O.3     1  UNL1       -0.3432
      7 C         139.4971  142.2921  164.6875 C.3     1  UNL1        0.2247
      8 H         144.1676  143.0154  166.1065 H       1  UNL1        0.1189
      9 H         143.7916  141.6898  167.0422 H       1  UNL1        0.1189
     10 N         140.0784  144.6893  158.1490 N.ar    1  UNL1       -0.1303
     11 C         140.4080  143.2984  158.6037 C.ar    1  UNL1        0.1195
     12 C         140.4552  143.2997  160.1030 C.ar    1  UNL1        0.0312
     13 C         140.1547  144.6915  160.5749 C.ar    1  UNL1        0.0954
     14 N         139.9219  145.5503  159.3673 N.ar    1  UNL1       -0.1519
     15 C         140.2019  144.6928  162.0742 C.3     1  UNL1        0.1205
     16 N         140.5314  143.3020  162.5288 N.3     1  UNL1       -0.2625
     17 C         140.6880  142.4410  161.3106 C.3     1  UNL1        0.1024
     18 C         139.7840  145.5908  155.3029 C.3     1  UNL1        0.2042
     19 S         139.9312  145.1400  156.7259 S.O2    1  UNL1        0.0828
     20 O         139.8666  146.5668  157.1845 O.2     1  UNL1       -0.1508
     21 O         139.9958  143.7133  156.2673 O.2     1  UNL1       -0.1508
     22 C         141.1203  141.4989  168.2211 C.ar    1  UNL1        0.0355
     23 C         141.6595  140.1322  168.5229 C.ar    1  UNL1        0.0300
     24 C         141.8067  139.6814  169.9460 C.ar    1  UNL1        0.1400
     25 F         142.3461  138.3146  170.2478 F       1  UNL1       -0.2042
     26 C         141.4147  140.5974  171.0672 C.ar    1  UNL1        0.0319
     27 C         140.8754  141.9641  170.7654 C.ar    1  UNL1        0.0317
     28 C         140.7282  142.4149  169.3423 C.ar    1  UNL1        0.1386
     29 F         140.1888  143.7817  169.0405 F       1  UNL1       -0.2044
     30 C         138.1682  142.1838  164.0001 C.3     1  UNL1        0.4234
     31 F         136.8394  142.0754  163.3127 F       1  UNL1       -0.1674
     32 F         137.7619  143.5076  164.5769 F       1  UNL1       -0.1674
     33 F         138.5745  140.8601  163.4234 F       1  UNL1       -0.1674
@<TRIPOS>BOND
     1    18    19    1
     2    19    20    2
     3    19    21    2
     4    19    10    1
     5    10    11   ar
     6    11    12   ar
     7    12    13   ar
     8    13    14   ar
     9    13    15    1
    10    15    16    1
    11     1    16    1
    12     1     2    1
    13     2     3    1
    14     3     4    1
    15     3     5    1
    16     5    22    1
    17    22    23   ar
    18    23    24   ar
    19    24    25    1
    20    24    26   ar
    21    26    27   ar
    22    27    28   ar
    23    28    29    1
    24     5     6    1
    25     6     7    1
    26     7    30    1
    27    30    31    1
    28    30    32    1
    29    30    33    1
    30    16    17    1
    31    14    10   ar
    32     7     1    1
    33    17    12    1
    34    28    22   ar
    35     4     8    1
    36     4     9    1
@<TRIPOS>MOLECULE
*****
 33 36 0 0 0
SMALL
GASTEIGER

@<TRIPOS>ATOM
      1 C         142.1407  139.8289  163.9208 C.3     1  UNL1        0.0954
      2 C         140.8615  139.5567  164.6553 C.3     1  UNL1        0.0371
      3 C         140.7065  139.9978  166.0805 C.3     1  UNL1        0.0841
      4 N         139.4272  139.7256  166.8150 N.3     1  UNL1       -0.3199
      5 C         141.8308  140.7111  166.7714 C.3     1  UNL1        0.1540
      6 O         143.1100  140.9832  166.0369 O.3     1  UNL1       -0.3432
      7 C         143.2650  140.5422  164.6116 C.3     1  UNL1        0.2247
      8 H         138.7785  139.2367  166.1982 H       1  UNL1        0.1189
      9 H         139.0124  140.6082  167.1139 H       1  UNL1        0.1189
     10 N         142.7726  138.0304  158.1090 N.ar    1  UNL1       -0.1303
     11 C         142.2112  139.3428  158.5697 C.ar    1  UNL1        0.1195
     12 C         142.2435  139.3600  160.0692 C.ar    1  UNL1        0.0312
     13 C         142.8248  138.0582  160.5353 C.ar    1  UNL1        0.0954
     14 N         143.1519  137.2364  159.3238 N.ar    1  UNL1       -0.1519
     15 C         142.8571  138.0754  162.0349 C.3     1  UNL1        0.1205
     16 N         142.2957  139.3878  162.4955 N.3     1  UNL1       -0.2625
     17 C         141.9165  140.1818  161.2808 C.3     1  UNL1        0.1024
     18 C         143.0826  137.1482  155.2584 C.3     1  UNL1        0.2042
     19 S         142.9276  137.5893  156.6837 S.O2    1  UNL1        0.0828
     20 O         141.8233  136.5918  156.8723 O.2     1  UNL1       -0.1508
     21 O         144.0319  138.5868  156.4950 O.2     1  UNL1       -0.1508
     22 C         141.6758  141.1521  168.1967 C.ar    1  UNL1        0.0355
     23 C         141.1069  142.5052  168.5054 C.ar    1  UNL1        0.0300
     24 C         140.9519  142.9463  169.9307 C.ar    1  UNL1        0.1400
     25 F         140.3829  144.2995  170.2394 F       1  UNL1       -0.2042
     26 C         141.3659  142.0343  171.0472 C.ar    1  UNL1        0.0319
     27 C         141.9349  140.6812  170.7385 C.ar    1  UNL1        0.0317
     28 C         142.0898  140.2401  169.3132 C.ar    1  UNL1        0.1386
     29 F         142.6588  138.8869  169.0045 F       1  UNL1       -0.2044
     30 C         144.5443  140.8144  163.8772 C.3     1  UNL1        0.4234
     31 F         145.8236  141.0865  163.1428 F       1  UNL1       -0.1674
     32 F         143.9616  142.0850  163.3331 F       1  UNL1       -0.1674
     33 F         145.1269  139.5438  164.4213 F       1  UNL1       -0.1674
@<TRIPOS>BOND
     1    18    19    1
     2    19    20    2
     3    19    21    2
     4    19    10    1
     5    10    11   ar
     6    11    12   ar
     7    12    13   ar
     8    13    14   ar
     9    13    15    1
    10    15    16    1
    11     1    16    1
    12     1     2    1
    13     2     3    1
    14     3     4    1
    15     3     5    1
    16     5    22    1
    17    22    23   ar
    18    23    24   ar
    19    24    25    1
    20    24    26   ar
    21    26    27   ar
    22    27    28   ar
    23    28    29    1
    24     5     6    1
    25     6     7    1
    26     7    30    1
    27    30    31    1
    28    30    32    1
    29    30    33    1
    30    16    17    1
    31    14    10   ar
    32     7     1    1
    33    17    12    1
    34    28    22   ar
    35     4     8    1
    36     4     9    1
@<TRIPOS>MOLECULE
*****
 33 36 0 0 0
SMALL
GASTEIGER

@<TRIPOS>ATOM
      1 C         141.7918  139.7872  163.7544 C.3     1  UNL1        0.0954
      2 C         142.7458  140.8249  164.2672 C.3     1  UNL1        0.0371
      3 C         142.6300  141.3178  165.6792 C.3     1  UNL1        0.0841
      4 N         143.5840  142.3555  166.1920 N.3     1  UNL1       -0.3199
      5 C         141.5601  140.7729  166.5783 C.3     1  UNL1        0.1540
      6 O         140.6061  139.7352  166.0655 O.3     1  UNL1       -0.3432
      7 C         140.7220  139.2424  164.6535 C.3     1  UNL1        0.2247
      8 H         144.2392  142.6100  165.4528 H       1  UNL1        0.1189
      9 H         144.0991  141.9800  166.9883 H       1  UNL1        0.1189
     10 N         142.2643  137.7775  157.9968 N.ar    1  UNL1       -0.1303
     11 C         141.3352  138.8502  158.4828 C.ar    1  UNL1        0.1195
     12 C         141.5539  139.0199  159.9571 C.ar    1  UNL1        0.0312
     13 C         142.6181  138.0521  160.3822 C.ar    1  UNL1        0.0954
     14 N         143.0572  137.2843  159.1707 N.ar    1  UNL1       -0.1519
     15 C         142.8368  138.2217  161.8565 C.3     1  UNL1        0.1205
     16 N         141.9077  139.2944  162.3424 N.3     1  UNL1       -0.2625
     17 C         141.1148  139.7876  161.1686 C.3     1  UNL1        0.1024
     18 C         142.4960  136.7918  155.1729 C.3     1  UNL1        0.2042
     19 S         142.3801  137.2847  156.5848 S.O2    1  UNL1        0.0828
     20 O         143.7963  137.7760  156.5296 O.2     1  UNL1       -0.1508
     21 O         140.9640  136.7934  156.6401 O.2     1  UNL1       -0.1508
     22 C         141.4443  141.2658  167.9903 C.ar    1  UNL1        0.0355
     23 C         140.8767  142.6267  168.2655 C.ar    1  UNL1        0.0300
     24 C         140.7609  143.1195  169.6774 C.ar    1  UNL1        0.1400
     25 F         140.1933  144.4805  169.9526 F       1  UNL1       -0.2042
     26 C         141.2125  142.2515  170.8143 C.ar    1  UNL1        0.0319
     27 C         141.7801  140.8906  170.5391 C.ar    1  UNL1        0.0317
     28 C         141.8959  140.3977  169.1271 C.ar    1  UNL1        0.1386
     29 F         142.4635  139.0367  168.8520 F       1  UNL1       -0.2044
     30 C         139.7679  138.2046  164.1407 C.3     1  UNL1        0.4234
     31 F         138.8139  137.1669  163.6280 F       1  UNL1       -0.1674
     32 F         138.8508  139.2878  163.6551 F       1  UNL1       -0.1674
     33 F         140.6850  137.1216  164.6263 F       1  UNL1       -0.1674
@<TRIPOS>BOND
     1    18    19    1
     2    19    20    2
     3    19    21    2
     4    19    10    1
     5    10    11   ar
     6    11    12   ar
     7    12    13   ar
     8    13    14   ar
     9    13    15    1
    10    15    16    1
    11     1    16    1
    12     1     2    1
    13     2     3    1
    14     3     4    1
    15     3     5    1
    16     5    22    1
    17    22    23   ar
    18    23    24   ar
    19    24    25    1
    20    24    26   ar
    21    26    27   ar
    22    27    28   ar
    23    28    29    1
    24     5     6    1
    25     6     7    1
    26     7    30    1
    27    30    31    1
    28    30    32    1
    29    30    33    1
    30    16    17    1
    31    14    10   ar
    32     7     1    1
    33    17    12    1
    34    28    22   ar
    35     4     8    1
    36     4     9    1
@<TRIPOS>MOLECULE
*****
 33 36 0 0 0
SMALL
GASTEIGER

@<TRIPOS>ATOM
      1 C         139.6856  141.1199  163.5548 C.3     1  UNL1        0.0954
      2 C         140.6201  140.0245  163.9754 C.3     1  UNL1        0.0371
      3 C         141.1155  139.9633  165.3899 C.3     1  UNL1        0.0841
      4 N         142.0500  138.8679  165.8105 N.3     1  UNL1       -0.3199
      5 C         140.6765  140.9974  166.3838 C.3     1  UNL1        0.1540
      6 O         139.7420  142.0927  165.9631 O.3     1  UNL1       -0.3432
      7 C         139.2466  142.1540  164.5486 C.3     1  UNL1        0.2247
      8 H         142.2409  138.2595  165.0143 H       1  UNL1        0.1189
      9 H         141.6210  138.3237  166.5590 H       1  UNL1        0.1189
     10 N         137.6654  141.3697  157.7869 N.ar    1  UNL1       -0.1303
     11 C         138.5045  142.4066  158.4729 C.ar    1  UNL1        0.1195
     12 C         138.7665  141.9385  159.8738 C.ar    1  UNL1        0.0312
     13 C         138.0892  140.6123  160.0535 C.ar    1  UNL1        0.0954
     14 N         137.4088  140.2607  158.7638 N.ar    1  UNL1       -0.1519
     15 C         138.3511  140.1442  161.4543 C.3     1  UNL1        0.1205
     16 N         139.1902  141.1811  162.1403 N.3     1  UNL1       -0.2625
     17 C         139.4469  142.2901  161.1635 C.3     1  UNL1        0.1024
     18 C         136.6746  141.4922  154.9579 C.3     1  UNL1        0.2042
     19 S         137.1700  141.4309  156.3724 S.O2    1  UNL1        0.0828
     20 O         137.2914  139.9397  156.2653 O.2     1  UNL1       -0.1508
     21 O         137.0486  142.9222  156.4795 O.2     1  UNL1       -0.1508
     22 C         141.1719  140.9361  167.7983 C.ar    1  UNL1        0.0355
     23 C         142.4875  141.5593  168.1598 C.ar    1  UNL1        0.0300
     24 C         142.9830  141.4980  169.5743 C.ar    1  UNL1        0.1400
     25 F         144.2987  142.1212  169.9358 F       1  UNL1       -0.2042
     26 C         142.1628  140.8136  170.6272 C.ar    1  UNL1        0.0319
     27 C         140.8471  140.1904  170.2657 C.ar    1  UNL1        0.0317
     28 C         140.3517  140.2517  168.8512 C.ar    1  UNL1        0.1386
     29 F         139.0360  139.6285  168.4897 F       1  UNL1       -0.2044
     30 C         138.3121  143.2494  164.1281 C.3     1  UNL1        0.4234
     31 F         137.3777  144.3448  163.7075 F       1  UNL1       -0.1674
     32 F         137.1513  142.3078  164.2547 F       1  UNL1       -0.1674
     33 F         139.4729  144.1910  164.0015 F       1  UNL1       -0.1674
@<TRIPOS>BOND
     1    18    19    1
     2    19    20    2
     3    19    21    2
     4    19    10    1
     5    10    11   ar
     6    11    12   ar
     7    12    13   ar
     8    13    14   ar
     9    13    15    1
    10    15    16    1
    11     1    16    1
    12     1     2    1
    13     2     3    1
    14     3     4    1
    15     3     5    1
    16     5    22    1
    17    22    23   ar
    18    23    24   ar
    19    24    25    1
    20    24    26   ar
    21    26    27   ar
    22    27    28   ar
    23    28    29    1
    24     5     6    1
    25     6     7    1
    26     7    30    1
    27    30    31    1
    28    30    32    1
    29    30    33    1
    30    16    17    1
    31    14    10   ar
    32     7     1    1
    33    17    12    1
    34    28    22   ar
    35     4     8    1
    36     4     9    1
@<TRIPOS>MOLECULE
*****
 33 36 0 0 0
SMALL
GASTEIGER

@<TRIPOS>ATOM
      1 C         141.0004  143.1139  163.5020 C.3     1  UNL1        0.0954
      2 C         140.0030  142.1087  163.9969 C.3     1  UNL1        0.0371
      3 C         140.1099  141.5707  165.3929 C.3     1  UNL1        0.0841
      4 N         139.1124  140.5655  165.8878 N.3     1  UNL1       -0.3199
      5 C         141.2142  142.0377  166.2942 C.3     1  UNL1        0.1540
      6 O         142.2116  143.0428  165.7994 O.3     1  UNL1       -0.3432
      7 C         142.1047  143.5809  164.4033 C.3     1  UNL1        0.2247
      8 H         138.4380  140.3640  165.1496 H       1  UNL1        0.1189
      9 H         138.6245  140.9423  166.7004 H       1  UNL1        0.1189
     10 N         140.5644  145.3080  157.8093 N.ar    1  UNL1       -0.1303
     11 C         141.3845  144.1278  158.2390 C.ar    1  UNL1        0.1195
     12 C         141.1970  143.9460  159.7161 C.ar    1  UNL1        0.0312
     13 C         140.2609  145.0138  160.1993 C.ar    1  UNL1        0.0954
     14 N         139.8700  145.8556  159.0209 N.ar    1  UNL1       -0.1519
     15 C         140.0733  144.8321  161.6764 C.3     1  UNL1        0.1205
     16 N         140.8935  143.6519  162.1060 N.3     1  UNL1       -0.2625
     17 C         141.5879  143.1043  160.8945 C.3     1  UNL1        0.1024
     18 C         140.3505  146.3841  155.0171 C.3     1  UNL1        0.2042
     19 S         140.4575  145.8460  156.4132 S.O2    1  UNL1        0.0828
     20 O         141.3857  144.7722  155.9282 O.2     1  UNL1       -0.1508
     21 O         139.5292  146.9199  156.8982 O.2     1  UNL1       -0.1508
     22 C         141.3211  141.4996  167.6903 C.ar    1  UNL1        0.0355
     23 C         141.9828  140.1760  167.9353 C.ar    1  UNL1        0.0300
     24 C         142.0898  139.6379  169.3314 C.ar    1  UNL1        0.1400
     25 F         142.7515  138.3142  169.5763 F       1  UNL1       -0.2042
     26 C         141.5350  140.4235  170.4824 C.ar    1  UNL1        0.0319
     27 C         140.8733  141.7471  170.2375 C.ar    1  UNL1        0.0317
     28 C         140.7664  142.2852  168.8414 C.ar    1  UNL1        0.1386
     29 F         140.1046  143.6089  168.5964 F       1  UNL1       -0.2044
     30 C         143.1022  144.5861  163.9085 C.3     1  UNL1        0.4234
     31 F         144.0996  145.5911  163.4137 F       1  UNL1       -0.1674
     32 F         142.1365  145.6933  164.2112 F       1  UNL1       -0.1674
     33 F         144.0677  143.4788  163.6058 F       1  UNL1       -0.1674
@<TRIPOS>BOND
     1    18    19    1
     2    19    20    2
     3    19    21    2
     4    19    10    1
     5    10    11   ar
     6    11    12   ar
     7    12    13   ar
     8    13    14   ar
     9    13    15    1
    10    15    16    1
    11     1    16    1
    12     1     2    1
    13     2     3    1
    14     3     4    1
    15     3     5    1
    16     5    22    1
    17    22    23   ar
    18    23    24   ar
    19    24    25    1
    20    24    26   ar
    21    26    27   ar
    22    27    28   ar
    23    28    29    1
    24     5     6    1
    25     6     7    1
    26     7    30    1
    27    30    31    1
    28    30    32    1
    29    30    33    1
    30    16    17    1
    31    14    10   ar
    32     7     1    1
    33    17    12    1
    34    28    22   ar
    35     4     8    1
    36     4     9    1
@<TRIPOS>MOLECULE
*****
 33 36 0 0 0
SMALL
GASTEIGER

@<TRIPOS>ATOM
      1 C         141.2441  142.9382  163.0433 C.3     1  UNL1        0.0954
      2 C         142.5478  142.2385  163.2899 C.3     1  UNL1        0.0371
      3 C         142.8934  141.7606  164.6691 C.3     1  UNL1        0.0841
      4 N         144.1972  141.0609  164.9156 N.3     1  UNL1       -0.3199
      5 C         141.9353  141.9824  165.8017 C.3     1  UNL1        0.1540
      6 O         140.6317  142.6820  165.5551 O.3     1  UNL1       -0.3432
      7 C         140.2861  143.1599  164.1760 C.3     1  UNL1        0.2247
      8 H         144.7194  140.9971  164.0417 H       1  UNL1        0.1189
      9 H         144.0173  140.1228  165.2734 H       1  UNL1        0.1189
     10 N         139.8348  144.8869  157.4195 N.ar    1  UNL1       -0.1303
     11 C         140.5492  145.6792  158.4739 C.ar    1  UNL1        0.1195
     12 C         140.6826  144.8148  159.6925 C.ar    1  UNL1        0.0312
     13 C         140.0507  143.4882  159.3912 C.ar    1  UNL1        0.0954
     14 N         139.5267  143.5328  157.9864 N.ar    1  UNL1       -0.1519
     15 C         140.1841  142.6238  160.6098 C.3     1  UNL1        0.1205
     16 N         140.8985  143.4161  161.6641 N.3     1  UNL1       -0.2625
     17 C         141.2066  144.7702  161.0973 C.3     1  UNL1        0.1024
     18 C         139.1436  145.8427  154.6611 C.3     1  UNL1        0.2042
     19 S         139.4892  145.3648  156.0403 S.O2    1  UNL1        0.0828
     20 O         139.6013  146.7866  156.5049 O.2     1  UNL1       -0.1508
     21 O         139.3771  143.9430  155.5757 O.2     1  UNL1       -0.1508
     22 C         142.2810  141.5045  167.1809 C.ar    1  UNL1        0.0355
     23 C         143.0943  142.3733  168.0938 C.ar    1  UNL1        0.0300
     24 C         143.4399  141.8954  169.4730 C.ar    1  UNL1        0.1400
     25 F         144.2533  142.7644  170.3860 F       1  UNL1       -0.2042
     26 C         142.9722  140.5487  169.9393 C.ar    1  UNL1        0.0319
     27 C         142.1589  139.6798  169.0263 C.ar    1  UNL1        0.0317
     28 C         141.8132  140.1577  167.6471 C.ar    1  UNL1        0.1386
     29 F         140.9999  139.2888  166.7342 F       1  UNL1       -0.2044
     30 C         138.9823  143.8596  163.9294 C.3     1  UNL1        0.4234
     31 F         137.6786  144.5593  163.6829 F       1  UNL1       -0.1674
     32 F         139.6089  145.1652  164.3208 F       1  UNL1       -0.1674
     33 F         138.3557  142.5542  163.5381 F       1  UNL1       -0.1674
@<TRIPOS>BOND
     1    18    19    1
     2    19    20    2
     3    19    21    2
     4    19    10    1
     5    10    11   ar
     6    11    12   ar
     7    12    13   ar
     8    13    14   ar
     9    13    15    1
    10    15    16    1
    11     1    16    1
    12     1     2    1
    13     2     3    1
    14     3     4    1
    15     3     5    1
    16     5    22    1
    17    22    23   ar
    18    23    24   ar
    19    24    25    1
    20    24    26   ar
    21    26    27   ar
    22    27    28   ar
    23    28    29    1
    24     5     6    1
    25     6     7    1
    26     7    30    1
    27    30    31    1
    28    30    32    1
    29    30    33    1
    30    16    17    1
    31    14    10   ar
    32     7     1    1
    33    17    12    1
    34    28    22   ar
    35     4     8    1
    36     4     9    1
@<TRIPOS>MOLECULE
*****
 33 36 0 0 0
SMALL
GASTEIGER

@<TRIPOS>ATOM
      1 C         140.9183  143.4399  162.5434 C.3     1  UNL1        0.0954
      2 C         139.8744  143.0193  161.5518 C.3     1  UNL1        0.0371
      3 C         139.9147  143.5503  160.1496 C.3     1  UNL1        0.0841
      4 N         138.8707  143.1296  159.1580 N.3     1  UNL1       -0.3199
      5 C         140.9989  144.5019  159.7389 C.3     1  UNL1        0.1540
      6 O         142.0428  144.9226  160.7304 O.3     1  UNL1       -0.3432
      7 C         142.0025  144.3916  162.1327 C.3     1  UNL1        0.2247
      8 H         138.2178  142.4854  159.6043 H       1  UNL1        0.1189
      9 H         139.3194  142.6659  158.3680 H       1  UNL1        0.1189
     10 N         140.7539  141.2746  168.2614 N.ar    1  UNL1       -0.1303
     11 C         140.2378  142.6082  167.8085 C.ar    1  UNL1        0.1195
     12 C         140.4823  142.7231  166.3330 C.ar    1  UNL1        0.0312
     13 C         141.1495  141.4604  165.8740 C.ar    1  UNL1        0.0954
     14 N         141.3173  140.5652  167.0659 N.ar    1  UNL1       -0.1519
     15 C         141.3940  141.5753  164.3986 C.3     1  UNL1        0.1205
     16 N         140.8780  142.9089  163.9457 N.3     1  UNL1       -0.2625
     17 C         140.3145  143.6182  165.1412 C.3     1  UNL1        0.1024
     18 C         140.6733  140.2125  171.0660 C.3     1  UNL1        0.2042
     19 S         140.7136  140.7435  169.6637 S.O2    1  UNL1        0.0828
     20 O         139.6066  139.8079  169.2776 O.2     1  UNL1       -0.1508
     21 O         141.8206  141.6792  170.0499 O.2     1  UNL1       -0.1508
     22 C         141.0393  145.0330  158.3366 C.ar    1  UNL1        0.0355
     23 C         139.9865  145.9930  157.8676 C.ar    1  UNL1        0.0300
     24 C         140.0268  146.5240  156.4653 C.ar    1  UNL1        0.1400
     25 F         138.9740  147.4841  155.9963 F       1  UNL1       -0.2042
     26 C         141.1199  146.0950  155.5320 C.ar    1  UNL1        0.0319
     27 C         142.1726  145.1350  156.0010 C.ar    1  UNL1        0.0317
     28 C         142.1323  144.6039  157.4033 C.ar    1  UNL1        0.1386
     29 F         143.1852  143.6439  157.8722 F       1  UNL1       -0.2044
     30 C         143.0465  144.8123  163.1243 C.3     1  UNL1        0.4234
     31 F         144.0904  145.2330  164.1159 F       1  UNL1       -0.1674
     32 F         143.9662  143.7453  162.6087 F       1  UNL1       -0.1674
     33 F         142.1268  145.8792  163.6399 F       1  UNL1       -0.1674
@<TRIPOS>BOND
     1    18    19    1
     2    19    20    2
     3    19    21    2
     4    19    10    1
     5    10    11   ar
     6    11    12   ar
     7    12    13   ar
     8    13    14   ar
     9    13    15    1
    10    15    16    1
    11     1    16    1
    12     1     2    1
    13     2     3    1
    14     3     4    1
    15     3     5    1
    16     5    22    1
    17    22    23   ar
    18    23    24   ar
    19    24    25    1
    20    24    26   ar
    21    26    27   ar
    22    27    28   ar
    23    28    29    1
    24     5     6    1
    25     6     7    1
    26     7    30    1
    27    30    31    1
    28    30    32    1
    29    30    33    1
    30    16    17    1
    31    14    10   ar
    32     7     1    1
    33    17    12    1
    34    28    22   ar
    35     4     8    1
    36     4     9    1
@<TRIPOS>MOLECULE
*****
 33 36 0 0 0
SMALL
GASTEIGER

@<TRIPOS>ATOM
      1 C         141.3902  142.8584  163.1144 C.3     1  UNL1        0.0954
      2 C         140.5225  141.6858  163.4632 C.3     1  UNL1        0.0371
      3 C         140.5870  141.0874  164.8372 C.3     1  UNL1        0.0841
      4 N         139.7192  139.9147  165.1860 N.3     1  UNL1       -0.3199
      5 C         141.5193  141.6617  165.8623 C.3     1  UNL1        0.1540
      6 O         142.3871  142.8344  165.5134 O.3     1  UNL1       -0.3432
      7 C         142.3225  143.4328  164.1395 C.3     1  UNL1        0.2247
      8 H         139.1535  139.6578  164.3771 H       1  UNL1        0.1189
      9 H         139.1075  140.1636  165.9634 H       1  UNL1        0.1189
     10 N         141.1270  145.2984  157.5118 N.ar    1  UNL1       -0.1303
     11 C         140.2111  145.6170  158.6561 C.ar    1  UNL1        0.1195
     12 C         140.6368  144.7919  159.8342 C.ar    1  UNL1        0.0312
     13 C         141.8159  143.9633  159.4180 C.ar    1  UNL1        0.0954
     14 N         142.1188  144.2764  157.9827 N.ar    1  UNL1       -0.1519
     15 C         142.2416  143.1382  160.5961 C.3     1  UNL1        0.1205
     16 N         141.3257  143.4568  161.7404 N.3     1  UNL1       -0.2625
     17 C         140.3339  144.4788  161.2696 C.3     1  UNL1        0.1024
     18 C         140.9979  146.4951  154.7638 C.3     1  UNL1        0.2042
     19 S         141.0625  145.8967  156.1378 S.O2    1  UNL1        0.0828
     20 O         139.7842  146.5926  156.5009 O.2     1  UNL1       -0.1508
     21 O         142.3407  145.2009  155.7747 O.2     1  UNL1       -0.1508
     22 C         141.5839  141.0633  167.2363 C.ar    1  UNL1        0.0355
     23 C         140.7258  141.6154  168.3358 C.ar    1  UNL1        0.0300
     24 C         140.7903  141.0170  169.7097 C.ar    1  UNL1        0.1400
     25 F         139.9322  141.5691  170.8093 F       1  UNL1       -0.2042
     26 C         141.7129  139.8666  169.9842 C.ar    1  UNL1        0.0319
     27 C         142.5710  139.3146  168.8847 C.ar    1  UNL1        0.0317
     28 C         142.5065  139.9130  167.5107 C.ar    1  UNL1        0.1386
     29 F         143.3646  139.3609  166.4112 F       1  UNL1       -0.2044
     30 C         143.1904  144.6055  163.7906 C.3     1  UNL1        0.4234
     31 F         144.0582  145.7782  163.4418 F       1  UNL1       -0.1674
     32 F         142.0693  145.5390  164.1398 F       1  UNL1       -0.1674
     33 F         144.3114  143.6720  163.4415 F       1  UNL1       -0.1674
@<TRIPOS>BOND
     1    18    19    1
     2    19    20    2
     3    19    21    2
     4    19    10    1
     5    10    11   ar
     6    11    12   ar
     7    12    13   ar
     8    13    14   ar
     9    13    15    1
    10    15    16    1
    11     1    16    1
    12     1     2    1
    13     2     3    1
    14     3     4    1
    15     3     5    1
    16     5    22    1
    17    22    23   ar
    18    23    24   ar
    19    24    25    1
    20    24    26   ar
    21    26    27   ar
    22    27    28   ar
    23    28    29    1
    24     5     6    1
    25     6     7    1
    26     7    30    1
    27    30    31    1
    28    30    32    1
    29    30    33    1
    30    16    17    1
    31    14    10   ar
    32     7     1    1
    33    17    12    1
    34    28    22   ar
    35     4     8    1
    36     4     9    1
