@<TRIPOS>MOLECULE
*****
 42 47 0 0 0
SMALL
GASTEIGER

@<TRIPOS>ATOM
      1 C         139.0563  137.9822  162.4564 C.3     1  UNL1        0.0932
      2 C         140.4237  137.9772  161.8397 C.3     1  UNL1        0.0286
      3 C         141.6414  137.9839  162.7154 C.3     1  UNL1        0.0193
      4 C         141.4919  137.9956  164.2079 C.3     1  UNL1        0.0700
      5 C         140.1246  138.0006  164.8247 C.3     1  UNL1        0.0193
      6 C         138.9067  137.9939  163.9489 C.3     1  UNL1        0.0286
      7 C         140.7952  137.9923  163.7691 C.3     1  UNL1        0.1562
      8 O         139.6940  137.9862  162.9772 O.3     1  UNL1       -0.3572
      9 N         142.7097  138.0023  165.0836 N.3     1  UNL1       -0.2926
     10 H         143.4143  137.4349  164.6125 H       1  UNL1        0.1236
     11 C         143.3686  139.3013  165.4422 C.3     1  UNL1        0.1152
     12 C         142.6066  140.3428  166.2067 C.ar    1  UNL1        0.0765
     13 C         141.9999  141.5092  165.4845 C.ar    1  UNL1        0.0193
     14 C         141.2379  142.5507  166.2490 C.ar    1  UNL1        0.0411
     15 C         141.0826  142.4260  167.7357 C.ar    1  UNL1        0.1708
     16 C         141.6893  141.2596  168.4579 C.ar    1  UNL1        0.1682
     17 N         142.4513  140.2180  167.6933 N.ar    1  UNL1       -0.2304
     18 N         141.5340  141.1348  169.9446 N.am    1  UNL1       -0.2639
     19 C         140.7720  142.1764  170.7092 C.2     1  UNL1        0.2718
     20 O         140.6167  142.0516  172.1959 O.2     1  UNL1       -0.2707
     21 C         140.1653  143.3428  169.9870 C.3     1  UNL1        0.2898
     22 O         140.3206  143.4675  168.5002 O.3     1  UNL1       -0.4628
     23 H         141.9322  140.3693  170.4186 H       1  UNL1        0.1565
     24 C         137.8385  137.9756  161.5807 C.3     1  UNL1        0.0319
     25 C         137.2025  139.2707  161.1705 C.3     1  UNL1        0.0304
     26 C         139.2146  143.9533  162.1831 C.ar    1  UNL1        0.1301
     27 C         138.5045  143.9727  163.5042 C.ar    1  UNL1        0.1655
     28 C         137.6464  142.8117  163.9117 C.ar    1  UNL1        0.1359
     29 N         137.4984  141.6314  162.9980 N.ar    1  UNL1       -0.2395
     30 C         138.2086  141.6120  161.6768 C.ar    1  UNL1        0.0954
     31 C         138.0606  140.4317  160.7631 C.ar    1  UNL1       -0.0014
     32 C         138.7707  140.4122  159.4420 C.ar    1  UNL1        0.0179
     33 C         139.6287  141.5731  159.0346 C.ar    1  UNL1        0.0986
     34 N         139.7767  142.7535  159.9483 N.ar    1  UNL1       -0.2420
     35 C         139.0666  142.7729  161.2694 C.ar    1  UNL1        0.1078
     36 C         140.0726  145.1142  161.7758 C.2     1  UNL1        0.3458
     37 O         139.4638  146.2803  161.0548 O.2     1  UNL1       -0.2447
     38 O         141.5395  145.1091  162.0893 O.3     1  UNL1       -0.4453
     39 C         143.4179  144.9384  163.8760 C.3     1  UNL1        0.0513
     40 C         142.0043  145.2767  163.5056 C.3     1  UNL1        0.2089
     41 O         138.6524  145.1531  164.4180 O.3     1  UNL1       -0.4696
     42 C         138.4531  144.9874  165.8955 C.3     1  UNL1        0.2525
@<TRIPOS>BOND
     1    39    40    1
     2    40    38    1
     3    38    36    1
     4    36    37    2
     5    36    26    1
     6    26    27   ar
     7    27    41    1
     8    41    42    1
     9    27    28   ar
    10    28    29   ar
    11    29    30   ar
    12    30    31   ar
    13    31    25    1
    14    25    24    1
    15    24     1    1
    16     1     2    1
    17     2     3    1
    18     3     4    1
    19     4     9    1
    20     9    11    1
    21    11    12    1
    22    12    13   ar
    23    13    14   ar
    24    14    15   ar
    25    15    16   ar
    26    16    17   ar
    27    16    18    1
    28    18    19   am
    29    19    20    2
    30    19    21    1
    31    21    22    1
    32     4     5    1
    33     5     6    1
    34     4     7    1
    35     7     8    1
    36    31    32   ar
    37    32    33   ar
    38    33    34   ar
    39    34    35   ar
    40    35    26   ar
    41    35    30   ar
    42     6     1    1
    43     8     1    1
    44    17    12   ar
    45    22    15    1
    46     9    10    1
    47    18    23    1
@<TRIPOS>MOLECULE
*****
 42 47 0 0 0
SMALL
GASTEIGER

@<TRIPOS>ATOM
      1 C         140.6974  138.2462  160.7132 C.3     1  UNL1        0.0932
      2 C         141.6509  138.0308  161.8510 C.3     1  UNL1        0.0286
      3 C         141.1249  137.7862  163.2343 C.3     1  UNL1        0.0193
      4 C         139.6454  137.7570  163.4798 C.3     1  UNL1        0.0700
      5 C         138.6919  137.9724  162.3421 C.3     1  UNL1        0.0193
      6 C         139.2179  138.2170  160.9588 C.3     1  UNL1        0.0286
      7 C         139.8863  137.8947  162.7046 C.3     1  UNL1        0.1562
      8 O         140.3620  138.1158  161.4538 O.3     1  UNL1       -0.3572
      9 N         139.1194  137.5124  164.8631 N.3     1  UNL1       -0.2926
     10 H         139.9204  137.2610  165.4425 H       1  UNL1        0.1236
     11 C         138.3841  138.5998  165.5891 C.3     1  UNL1        0.1152
     12 C         139.1487  139.6814  166.2930 C.ar    1  UNL1        0.0765
     13 C         139.9364  140.6812  165.4994 C.ar    1  UNL1        0.0193
     14 C         140.7009  141.7629  166.2033 C.ar    1  UNL1        0.0411
     15 C         140.6778  141.8447  167.7009 C.ar    1  UNL1        0.1708
     16 C         139.8901  140.8449  168.4946 C.ar    1  UNL1        0.1682
     17 N         139.1255  139.7632  167.7906 N.ar    1  UNL1       -0.2304
     18 N         139.8669  140.9266  169.9921 N.am    1  UNL1       -0.2639
     19 C         140.6315  142.0083  170.6961 C.2     1  UNL1        0.2718
     20 O         140.6083  142.0901  172.1937 O.2     1  UNL1       -0.2707
     21 C         141.4192  143.0081  169.9025 C.3     1  UNL1        0.2898
     22 O         141.4424  142.9263  168.4048 O.3     1  UNL1       -0.4628
     23 H         139.3499  140.2704  170.5130 H       1  UNL1        0.1565
     24 C         141.2234  138.4908  159.3299 C.3     1  UNL1        0.0319
     25 C         141.5650  139.8845  158.8930 C.3     1  UNL1        0.0304
     26 C         140.3788  144.0163  161.8121 C.ar    1  UNL1        0.1301
     27 C         141.6298  143.8094  162.6133 C.ar    1  UNL1        0.1655
     28 C         142.5520  142.6730  162.2842 C.ar    1  UNL1        0.1359
     29 N         142.2230  141.7435  161.1538 N.ar    1  UNL1       -0.2395
     30 C         140.9719  141.9505  160.3525 C.ar    1  UNL1        0.0954
     31 C         140.6429  141.0210  159.2221 C.ar    1  UNL1       -0.0014
     32 C         139.3918  141.2279  158.4209 C.ar    1  UNL1        0.0179
     33 C         138.4698  142.3643  158.7500 C.ar    1  UNL1        0.0986
     34 N         138.7988  143.2937  159.8804 N.ar    1  UNL1       -0.2420
     35 C         140.0498  143.0868  160.6817 C.ar    1  UNL1        0.1078
     36 C         139.4568  145.1527  162.1412 C.2     1  UNL1        0.3458
     37 O         139.8714  146.5642  161.8477 O.2     1  UNL1       -0.2447
     38 O         138.1201  144.8778  162.7639 O.3     1  UNL1       -0.4453
     39 C         138.7178  144.8055  165.2913 C.3     1  UNL1        0.0513
     40 C         138.0401  144.1983  164.0988 C.3     1  UNL1        0.2089
     41 O         141.9588  144.7389  163.7437 O.3     1  UNL1       -0.4696
     42 C         143.3746  145.1848  163.9603 C.3     1  UNL1        0.2525
@<TRIPOS>BOND
     1    39    40    1
     2    40    38    1
     3    38    36    1
     4    36    37    2
     5    36    26    1
     6    26    27   ar
     7    27    41    1
     8    41    42    1
     9    27    28   ar
    10    28    29   ar
    11    29    30   ar
    12    30    31   ar
    13    31    25    1
    14    25    24    1
    15    24     1    1
    16     1     2    1
    17     2     3    1
    18     3     4    1
    19     4     9    1
    20     9    11    1
    21    11    12    1
    22    12    13   ar
    23    13    14   ar
    24    14    15   ar
    25    15    16   ar
    26    16    17   ar
    27    16    18    1
    28    18    19   am
    29    19    20    2
    30    19    21    1
    31    21    22    1
    32     4     5    1
    33     5     6    1
    34     4     7    1
    35     7     8    1
    36    31    32   ar
    37    32    33   ar
    38    33    34   ar
    39    34    35   ar
    40    35    26   ar
    41    35    30   ar
    42     6     1    1
    43     8     1    1
    44    17    12   ar
    45    22    15    1
    46     9    10    1
    47    18    23    1
@<TRIPOS>MOLECULE
*****
 42 47 0 0 0
SMALL
GASTEIGER

@<TRIPOS>ATOM
      1 C         137.7928  139.9954  161.8535 C.3     1  UNL1        0.0932
      2 C         138.2918  140.8455  160.7228 C.3     1  UNL1        0.0286
      3 C         138.3354  142.3377  160.8690 C.3     1  UNL1        0.0193
      4 C         137.8799  142.9798  162.1457 C.3     1  UNL1        0.0700
      5 C         137.3809  142.1298  163.2764 C.3     1  UNL1        0.0193
      6 C         137.3373  140.6376  163.1303 C.3     1  UNL1        0.0286
      7 C         137.8375  142.1582  162.1125 C.3     1  UNL1        0.1562
      8 O         137.7981  140.8089  161.9803 O.3     1  UNL1       -0.3572
      9 N         137.9235  144.4720  162.2919 N.3     1  UNL1       -0.2926
     10 H         137.2118  144.7216  162.9786 H       1  UNL1        0.1236
     11 C         139.1931  145.1471  162.7193 C.3     1  UNL1        0.1152
     12 C         140.5196  144.5433  162.3647 C.ar    1  UNL1        0.0765
     13 C         141.1754  144.8870  161.0601 C.ar    1  UNL1        0.0193
     14 C         142.5019  144.2833  160.7055 C.ar    1  UNL1        0.0411
     15 C         143.1727  143.3358  161.6555 C.ar    1  UNL1        0.1708
     16 C         142.5169  142.9921  162.9601 C.ar    1  UNL1        0.1682
     17 N         141.1903  143.5959  163.3146 N.ar    1  UNL1       -0.2304
     18 N         143.1876  142.0446  163.9100 N.am    1  UNL1       -0.2639
     19 C         144.5142  141.4408  163.5554 C.2     1  UNL1        0.2718
     20 O         145.1850  140.4934  164.5054 O.2     1  UNL1       -0.2707
     21 C         145.1700  141.7845  162.2509 C.3     1  UNL1        0.2898
     22 O         144.4992  142.7320  161.3009 O.3     1  UNL1       -0.4628
     23 H         142.7572  141.8191  164.7662 H       1  UNL1        0.1565
     24 C         137.7492  138.5032  161.7074 C.3     1  UNL1        0.0319
     25 C         138.3808  137.6287  162.7497 C.3     1  UNL1        0.0304
     26 C         141.2261  139.6500  166.5993 C.ar    1  UNL1        0.1301
     27 C         139.9744  139.9331  167.3758 C.ar    1  UNL1        0.1655
     28 C         138.6371  139.5694  166.8016 C.ar    1  UNL1        0.1359
     29 N         138.5517  138.9225  165.4510 N.ar    1  UNL1       -0.2395
     30 C         139.8035  138.6394  164.6745 C.ar    1  UNL1        0.0954
     31 C         139.7181  137.9925  163.3238 C.ar    1  UNL1       -0.0014
     32 C         140.9698  137.7093  162.5473 C.ar    1  UNL1        0.0179
     33 C         142.3069  138.0731  163.1215 C.ar    1  UNL1        0.0986
     34 N         142.3924  138.7200  164.4721 N.ar    1  UNL1       -0.2420
     35 C         141.1407  139.0031  165.2486 C.ar    1  UNL1        0.1078
     36 C         142.5632  140.0137  167.1734 C.2     1  UNL1        0.3458
     37 O         143.3411  139.0023  167.9621 O.2     1  UNL1       -0.2447
     38 O         143.1226  141.3889  166.9589 O.3     1  UNL1       -0.4453
     39 C         143.4524  142.0880  169.4394 C.3     1  UNL1        0.0513
     40 C         143.0153  142.4198  168.0434 C.3     1  UNL1        0.2089
     41 O         140.0598  140.5800  168.7264 O.3     1  UNL1       -0.4696
     42 C         140.4790  139.7730  169.9194 C.3     1  UNL1        0.2525
@<TRIPOS>BOND
     1    39    40    1
     2    40    38    1
     3    38    36    1
     4    36    37    2
     5    36    26    1
     6    26    27   ar
     7    27    41    1
     8    41    42    1
     9    27    28   ar
    10    28    29   ar
    11    29    30   ar
    12    30    31   ar
    13    31    25    1
    14    25    24    1
    15    24     1    1
    16     1     2    1
    17     2     3    1
    18     3     4    1
    19     4     9    1
    20     9    11    1
    21    11    12    1
    22    12    13   ar
    23    13    14   ar
    24    14    15   ar
    25    15    16   ar
    26    16    17   ar
    27    16    18    1
    28    18    19   am
    29    19    20    2
    30    19    21    1
    31    21    22    1
    32     4     5    1
    33     5     6    1
    34     4     7    1
    35     7     8    1
    36    31    32   ar
    37    32    33   ar
    38    33    34   ar
    39    34    35   ar
    40    35    26   ar
    41    35    30   ar
    42     6     1    1
    43     8     1    1
    44    17    12   ar
    45    22    15    1
    46     9    10    1
    47    18    23    1
@<TRIPOS>MOLECULE
*****
 42 47 0 0 0
SMALL
GASTEIGER

@<TRIPOS>ATOM
      1 C         144.4158  139.6576  163.7138 C.3     1  UNL1        0.0932
      2 C         144.1362  139.1714  162.3225 C.3     1  UNL1        0.0286
      3 C         142.9469  138.2963  162.0588 C.3     1  UNL1        0.0193
      4 C         142.0372  137.9072  163.1862 C.3     1  UNL1        0.0700
      5 C         142.3167  138.3934  164.5774 C.3     1  UNL1        0.0193
      6 C         143.5061  139.2686  164.8412 C.3     1  UNL1        0.0286
      7 C         142.6766  138.3886  163.3797 C.3     1  UNL1        0.1562
      8 O         143.7520  139.1800  163.6182 O.3     1  UNL1       -0.3572
      9 N         140.8479  137.0321  162.9224 N.3     1  UNL1       -0.2926
     10 H         140.6771  136.5020  163.7769 H       1  UNL1        0.1236
     11 C         139.5383  137.6461  162.5247 C.3     1  UNL1        0.1152
     12 C         139.0969  138.9386  163.1448 C.ar    1  UNL1        0.0765
     13 C         138.5753  138.9561  164.5511 C.ar    1  UNL1        0.0193
     14 C         138.1338  140.2486  165.1712 C.ar    1  UNL1        0.0411
     15 C         138.2140  141.5236  164.3850 C.ar    1  UNL1        0.1708
     16 C         138.7356  141.5061  162.9788 C.ar    1  UNL1        0.1682
     17 N         139.1771  140.2135  162.3587 N.ar    1  UNL1       -0.2304
     18 N         138.8158  142.7810  162.1926 N.am    1  UNL1       -0.2639
     19 C         138.3744  144.0736  162.8127 C.2     1  UNL1        0.2718
     20 O         138.4546  145.3485  162.0266 O.2     1  UNL1       -0.2707
     21 C         137.8528  144.0911  164.2190 C.3     1  UNL1        0.2898
     22 O         137.7726  142.8161  165.0052 O.3     1  UNL1       -0.4628
     23 H         139.1582  142.7694  161.2696 H       1  UNL1        0.1565
     24 C         145.6051  140.5328  163.9776 C.3     1  UNL1        0.0319
     25 C         145.4312  142.0176  164.1000 C.3     1  UNL1        0.0304
     26 C         142.3594  143.6589  160.2439 C.ar    1  UNL1        0.1301
     27 C         143.3679  143.1862  159.2392 C.ar    1  UNL1        0.1655
     28 C         144.6402  142.5394  159.7009 C.ar    1  UNL1        0.1359
     29 N         144.9039  142.3655  161.1673 N.ar    1  UNL1       -0.2395
     30 C         143.8953  142.8383  162.1719 C.ar    1  UNL1        0.0954
     31 C         144.1589  142.6644  163.6383 C.ar    1  UNL1       -0.0014
     32 C         143.1504  143.1371  164.6429 C.ar    1  UNL1        0.0179
     33 C         141.8782  143.7838  164.1812 C.ar    1  UNL1        0.0986
     34 N         141.6145  143.9578  162.7149 N.ar    1  UNL1       -0.2420
     35 C         142.6231  143.4850  161.7102 C.ar    1  UNL1        0.1078
     36 C         141.0872  144.3056  159.7821 C.2     1  UNL1        0.3458
     37 O         141.0551  145.7777  159.4957 O.2     1  UNL1       -0.2447
     38 O         139.8470  143.4803  159.6068 O.3     1  UNL1       -0.4453
     39 C         139.6936  143.8316  157.0371 C.3     1  UNL1        0.0513
     40 C         139.4699  142.9729  158.2464 C.3     1  UNL1        0.2089
     41 O         143.1042  143.3601  157.7729 O.3     1  UNL1       -0.4696
     42 C         143.8368  142.5145  156.7736 C.3     1  UNL1        0.2525
@<TRIPOS>BOND
     1    39    40    1
     2    40    38    1
     3    38    36    1
     4    36    37    2
     5    36    26    1
     6    26    27   ar
     7    27    41    1
     8    41    42    1
     9    27    28   ar
    10    28    29   ar
    11    29    30   ar
    12    30    31   ar
    13    31    25    1
    14    25    24    1
    15    24     1    1
    16     1     2    1
    17     2     3    1
    18     3     4    1
    19     4     9    1
    20     9    11    1
    21    11    12    1
    22    12    13   ar
    23    13    14   ar
    24    14    15   ar
    25    15    16   ar
    26    16    17   ar
    27    16    18    1
    28    18    19   am
    29    19    20    2
    30    19    21    1
    31    21    22    1
    32     4     5    1
    33     5     6    1
    34     4     7    1
    35     7     8    1
    36    31    32   ar
    37    32    33   ar
    38    33    34   ar
    39    34    35   ar
    40    35    26   ar
    41    35    30   ar
    42     6     1    1
    43     8     1    1
    44    17    12   ar
    45    22    15    1
    46     9    10    1
    47    18    23    1
@<TRIPOS>MOLECULE
*****
 42 47 0 0 0
SMALL
GASTEIGER

@<TRIPOS>ATOM
      1 C         140.8559  138.2521  161.1511 C.3     1  UNL1        0.0932
      2 C         139.3701  138.1044  161.2949 C.3     1  UNL1        0.0286
      3 C         138.7742  137.7860  162.6341 C.3     1  UNL1        0.0193
      4 C         139.6640  137.6153  163.8295 C.3     1  UNL1        0.0700
      5 C         141.1497  137.7630  163.6857 C.3     1  UNL1        0.0193
      6 C         141.7457  138.0814  162.3465 C.3     1  UNL1        0.0286
      7 C         140.0367  137.7893  163.1162 C.3     1  UNL1        0.1562
      8 O         140.5755  138.0772  161.9052 O.3     1  UNL1       -0.3572
      9 N         139.0681  137.2969  165.1687 N.3     1  UNL1       -0.2926
     10 H         139.8418  137.0399  165.7817 H       1  UNL1        0.1236
     11 C         138.2640  138.3327  165.8973 C.3     1  UNL1        0.1152
     12 C         138.9503  139.5081  166.5277 C.ar    1  UNL1        0.0765
     13 C         139.5524  140.5767  165.6644 C.ar    1  UNL1        0.0193
     14 C         140.2386  141.7521  166.2948 C.ar    1  UNL1        0.0411
     15 C         140.3227  141.8589  167.7887 C.ar    1  UNL1        0.1708
     16 C         139.7206  140.7902  168.6521 C.ar    1  UNL1        0.1682
     17 N         139.0343  139.6148  168.0215 N.ar    1  UNL1       -0.2304
     18 N         139.8046  140.8969  170.1459 N.am    1  UNL1       -0.2639
     19 C         140.4909  142.0724  170.7764 C.2     1  UNL1        0.2718
     20 O         140.5749  142.1791  172.2702 O.2     1  UNL1       -0.2707
     21 C         141.0930  143.1410  169.9131 C.3     1  UNL1        0.2898
     22 O         141.0090  143.0343  168.4192 O.3     1  UNL1       -0.4628
     23 H         139.4094  140.1955  170.7125 H       1  UNL1        0.1565
     24 C         141.4518  138.5705  159.8119 C.3     1  UNL1        0.0319
     25 C         141.0170  139.7999  159.0706 C.3     1  UNL1        0.0304
     26 C         140.1185  144.1451  161.7747 C.ar    1  UNL1        0.1301
     27 C         138.7808  143.6094  162.1911 C.ar    1  UNL1        0.1655
     28 C         138.3365  142.2551  161.7234 C.ar    1  UNL1        0.1359
     29 N         139.2300  141.4367  160.8391 N.ar    1  UNL1       -0.2395
     30 C         140.5677  141.9725  160.4226 C.ar    1  UNL1        0.0954
     31 C         141.4612  141.1541  159.5384 C.ar    1  UNL1       -0.0014
     32 C         142.7989  141.6899  159.1219 C.ar    1  UNL1        0.0179
     33 C         143.2431  143.0441  159.5897 C.ar    1  UNL1        0.0986
     34 N         142.3496  143.8625  160.4740 N.ar    1  UNL1       -0.2420
     35 C         141.0119  143.3267  160.8904 C.ar    1  UNL1        0.1078
     36 C         140.5627  145.4993  162.2425 C.2     1  UNL1        0.3458
     37 O         139.8190  146.7257  161.8032 O.2     1  UNL1       -0.2447
     38 O         141.7505  145.6271  163.1494 O.3     1  UNL1       -0.4453
     39 C         143.4794  144.2308  164.4953 C.3     1  UNL1        0.0513
     40 C         142.0558  144.5451  164.1425 C.3     1  UNL1        0.2089
     41 O         137.8873  144.4278  163.0754 O.3     1  UNL1       -0.4696
     42 C         137.9157  144.2275  164.5617 C.3     1  UNL1        0.2525
@<TRIPOS>BOND
     1    39    40    1
     2    40    38    1
     3    38    36    1
     4    36    37    2
     5    36    26    1
     6    26    27   ar
     7    27    41    1
     8    41    42    1
     9    27    28   ar
    10    28    29   ar
    11    29    30   ar
    12    30    31   ar
    13    31    25    1
    14    25    24    1
    15    24     1    1
    16     1     2    1
    17     2     3    1
    18     3     4    1
    19     4     9    1
    20     9    11    1
    21    11    12    1
    22    12    13   ar
    23    13    14   ar
    24    14    15   ar
    25    15    16   ar
    26    16    17   ar
    27    16    18    1
    28    18    19   am
    29    19    20    2
    30    19    21    1
    31    21    22    1
    32     4     5    1
    33     5     6    1
    34     4     7    1
    35     7     8    1
    36    31    32   ar
    37    32    33   ar
    38    33    34   ar
    39    34    35   ar
    40    35    26   ar
    41    35    30   ar
    42     6     1    1
    43     8     1    1
    44    17    12   ar
    45    22    15    1
    46     9    10    1
    47    18    23    1
@<TRIPOS>MOLECULE
*****
 42 47 0 0 0
SMALL
GASTEIGER

@<TRIPOS>ATOM
      1 C         139.0251  138.0528  162.5908 C.3     1  UNL1        0.0932
      2 C         140.3889  138.0490  161.9661 C.3     1  UNL1        0.0286
      3 C         141.6112  137.9997  162.8340 C.3     1  UNL1        0.0193
      4 C         141.4699  137.9541  164.3267 C.3     1  UNL1        0.0700
      5 C         140.1062  137.9579  164.9514 C.3     1  UNL1        0.0193
      6 C         138.8837  138.0072  164.0834 C.3     1  UNL1        0.0286
      7 C         140.7709  137.9803  163.8923 C.3     1  UNL1        0.1562
      8 O         139.6656  138.0249  163.1074 O.3     1  UNL1       -0.3572
      9 N         142.6923  137.9048  165.1946 N.3     1  UNL1       -0.2926
     10 H         143.3813  137.3376  164.7007 H       1  UNL1        0.1236
     11 C         143.3822  139.1763  165.5914 C.3     1  UNL1        0.1152
     12 C         142.6240  140.2445  166.3221 C.ar    1  UNL1        0.0765
     13 C         142.0465  141.4045  165.5665 C.ar    1  UNL1        0.0193
     14 C         141.2883  142.4728  166.2972 C.ar    1  UNL1        0.0411
     15 C         141.1074  142.3810  167.7835 C.ar    1  UNL1        0.1708
     16 C         141.6849  141.2209  168.5390 C.ar    1  UNL1        0.1682
     17 N         142.4432  140.1527  167.8083 N.ar    1  UNL1       -0.2304
     18 N         141.5041  141.1291  170.0252 N.am    1  UNL1       -0.2639
     19 C         140.7458  142.1974  170.7559 C.2     1  UNL1        0.2718
     20 O         140.5650  142.1056  172.2421 O.2     1  UNL1       -0.2707
     21 C         140.1684  143.3574  170.0004 C.3     1  UNL1        0.2898
     22 O         140.3492  143.4492  168.5141 O.3     1  UNL1       -0.4628
     23 H         141.8831  140.3677  170.5211 H       1  UNL1        0.1565
     24 C         137.8027  138.1021  161.7229 C.3     1  UNL1        0.0319
     25 C         137.4250  139.3784  161.0312 C.3     1  UNL1        0.0304
     26 C         139.8508  143.9615  160.6987 C.ar    1  UNL1        0.1301
     27 C         140.3214  143.6123  159.3180 C.ar    1  UNL1        0.1655
     28 C         139.9502  142.2919  158.7107 C.ar    1  UNL1        0.1359
     29 N         139.1085  141.3207  159.4842 N.ar    1  UNL1       -0.2395
     30 C         138.6379  141.6700  160.8650 C.ar    1  UNL1        0.0954
     31 C         137.7961  140.6989  161.6385 C.ar    1  UNL1       -0.0014
     32 C         137.3255  141.0481  163.0193 C.ar    1  UNL1        0.0179
     33 C         137.6967  142.3684  163.6265 C.ar    1  UNL1        0.0986
     34 N         138.5384  143.3396  162.8530 N.ar    1  UNL1       -0.2420
     35 C         139.0090  142.9904  161.4723 C.ar    1  UNL1        0.1078
     36 C         140.2219  145.2819  161.3060 C.2     1  UNL1        0.3458
     37 O         139.2570  146.4292  161.2538 O.2     1  UNL1       -0.2447
     38 O         141.5580  145.4551  161.9654 O.3     1  UNL1       -0.4453
     39 C         143.1392  145.0346  163.9837 C.3     1  UNL1        0.0513
     40 C         141.7787  144.9444  163.3585 C.3     1  UNL1        0.2089
     41 O         141.1631  144.5835  158.5445 O.3     1  UNL1       -0.4696
     42 C         142.5770  144.2319  158.1873 C.3     1  UNL1        0.2525
@<TRIPOS>BOND
     1    39    40    1
     2    40    38    1
     3    38    36    1
     4    36    37    2
     5    36    26    1
     6    26    27   ar
     7    27    41    1
     8    41    42    1
     9    27    28   ar
    10    28    29   ar
    11    29    30   ar
    12    30    31   ar
    13    31    25    1
    14    25    24    1
    15    24     1    1
    16     1     2    1
    17     2     3    1
    18     3     4    1
    19     4     9    1
    20     9    11    1
    21    11    12    1
    22    12    13   ar
    23    13    14   ar
    24    14    15   ar
    25    15    16   ar
    26    16    17   ar
    27    16    18    1
    28    18    19   am
    29    19    20    2
    30    19    21    1
    31    21    22    1
    32     4     5    1
    33     5     6    1
    34     4     7    1
    35     7     8    1
    36    31    32   ar
    37    32    33   ar
    38    33    34   ar
    39    34    35   ar
    40    35    26   ar
    41    35    30   ar
    42     6     1    1
    43     8     1    1
    44    17    12   ar
    45    22    15    1
    46     9    10    1
    47    18    23    1
@<TRIPOS>MOLECULE
*****
 42 47 0 0 0
SMALL
GASTEIGER

@<TRIPOS>ATOM
      1 C         138.1661  143.3149  162.3536 C.3     1  UNL1        0.0932
      2 C         137.4765  142.4967  163.4050 C.3     1  UNL1        0.0286
      3 C         137.2250  141.0362  163.1735 C.3     1  UNL1        0.0193
      4 C         137.6630  140.3938  161.8908 C.3     1  UNL1        0.0700
      5 C         138.3524  141.2118  160.8395 C.3     1  UNL1        0.0193
      6 C         138.6040  142.6724  161.0708 C.3     1  UNL1        0.0286
      7 C         137.8227  141.1974  161.9722 C.3     1  UNL1        0.1562
      8 O         138.0501  142.5181  162.1815 O.3     1  UNL1       -0.3572
      9 N         137.4114  138.9332  161.6594 N.3     1  UNL1       -0.2926
     10 H         137.3518  138.8011  160.6497 H       1  UNL1        0.1236
     11 C         138.3849  137.9140  162.1727 C.3     1  UNL1        0.1152
     12 C         139.2957  138.2552  163.3146 C.ar    1  UNL1        0.0765
     13 C         140.7782  138.0784  163.1702 C.ar    1  UNL1        0.0193
     14 C         141.6890  138.4196  164.3121 C.ar    1  UNL1        0.0411
     15 C         141.1173  138.9376  165.5985 C.ar    1  UNL1        0.1708
     16 C         139.6348  139.1144  165.7430 C.ar    1  UNL1        0.1682
     17 N         138.7240  138.7732  164.6010 N.ar    1  UNL1       -0.2304
     18 N         139.0630  139.6324  167.0293 N.am    1  UNL1       -0.2639
     19 C         139.9738  139.9736  168.1713 C.2     1  UNL1        0.2718
     20 O         139.4021  140.4916  169.4577 O.2     1  UNL1       -0.2707
     21 C         141.4563  139.7969  168.0269 C.3     1  UNL1        0.2898
     22 O         142.0281  139.2789  166.7404 O.3     1  UNL1       -0.4628
     23 H         138.0900  139.7484  167.1241 H       1  UNL1        0.1565
     24 C         138.4176  144.7754  162.5850 C.3     1  UNL1        0.0319
     25 C         139.6581  145.2183  163.3025 C.3     1  UNL1        0.0304
     26 C         143.7983  142.2675  162.2294 C.ar    1  UNL1        0.1301
     27 C         143.8284  142.8171  160.8341 C.ar    1  UNL1        0.1655
     28 C         142.8084  143.8297  160.4047 C.ar    1  UNL1        0.1359
     29 N         141.7583  144.2926  161.3706 N.ar    1  UNL1       -0.2395
     30 C         141.7282  143.7429  162.7660 C.ar    1  UNL1        0.0954
     31 C         140.6781  144.2057  163.7320 C.ar    1  UNL1       -0.0014
     32 C         140.6480  143.6561  165.1273 C.ar    1  UNL1        0.0179
     33 C         141.6680  142.6436  165.5566 C.ar    1  UNL1        0.0986
     34 N         142.7181  142.1807  164.5907 N.ar    1  UNL1       -0.2420
     35 C         142.7482  142.7304  163.1954 C.ar    1  UNL1        0.1078
     36 C         144.8183  141.2550  162.6588 C.2     1  UNL1        0.3458
     37 O         146.1582  141.7062  163.1600 O.2     1  UNL1       -0.2447
     38 O         144.4985  139.7912  162.5870 O.3     1  UNL1       -0.4453
     39 C         143.9083  137.6932  161.1727 C.3     1  UNL1        0.0513
     40 C         144.0699  139.1802  161.2858 C.3     1  UNL1        0.2089
     41 O         144.8785  142.3543  159.8682 O.3     1  UNL1       -0.4696
     42 C         144.5442  142.1999  158.4140 C.3     1  UNL1        0.2525
@<TRIPOS>BOND
     1    39    40    1
     2    40    38    1
     3    38    36    1
     4    36    37    2
     5    36    26    1
     6    26    27   ar
     7    27    41    1
     8    41    42    1
     9    27    28   ar
    10    28    29   ar
    11    29    30   ar
    12    30    31   ar
    13    31    25    1
    14    25    24    1
    15    24     1    1
    16     1     2    1
    17     2     3    1
    18     3     4    1
    19     4     9    1
    20     9    11    1
    21    11    12    1
    22    12    13   ar
    23    13    14   ar
    24    14    15   ar
    25    15    16   ar
    26    16    17   ar
    27    16    18    1
    28    18    19   am
    29    19    20    2
    30    19    21    1
    31    21    22    1
    32     4     5    1
    33     5     6    1
    34     4     7    1
    35     7     8    1
    36    31    32   ar
    37    32    33   ar
    38    33    34   ar
    39    34    35   ar
    40    35    26   ar
    41    35    30   ar
    42     6     1    1
    43     8     1    1
    44    17    12   ar
    45    22    15    1
    46     9    10    1
    47    18    23    1
@<TRIPOS>MOLECULE
*****
 42 47 0 0 0
SMALL
GASTEIGER

@<TRIPOS>ATOM
      1 C         144.4059  139.7750  163.6861 C.3     1  UNL1        0.0932
      2 C         143.6200  139.2699  164.8597 C.3     1  UNL1        0.0286
      3 C         142.4837  138.3144  164.6462 C.3     1  UNL1        0.0193
      4 C         142.1332  137.8638  163.2591 C.3     1  UNL1        0.0700
      5 C         142.9190  138.3689  162.0855 C.3     1  UNL1        0.0193
      6 C         144.0554  139.3245  162.2989 C.3     1  UNL1        0.0286
      7 C         142.7643  138.3885  163.3263 C.3     1  UNL1        0.1562
      8 O         143.7918  139.2525  163.5194 O.3     1  UNL1       -0.3572
      9 N         140.9969  136.9083  163.0456 N.3     1  UNL1       -0.2926
     10 H         141.0524  136.2136  163.7904 H       1  UNL1        0.1236
     11 C         139.5847  137.4139  163.0295 C.3     1  UNL1        0.1152
     12 C         139.1158  138.2938  161.9089 C.ar    1  UNL1        0.0765
     13 C         138.0958  139.3620  162.1705 C.ar    1  UNL1        0.0193
     14 C         137.6269  140.2420  161.0499 C.ar    1  UNL1        0.0411
     15 C         138.1781  140.0537  159.6675 C.ar    1  UNL1        0.1708
     16 C         139.1981  138.9854  159.4059 C.ar    1  UNL1        0.1682
     17 N         139.6670  138.1055  160.5266 N.ar    1  UNL1       -0.2304
     18 N         139.7493  138.7971  158.0236 N.am    1  UNL1       -0.2639
     19 C         139.2804  139.6771  156.9029 C.2     1  UNL1        0.2718
     20 O         139.8316  139.4888  155.5206 O.2     1  UNL1       -0.2707
     21 C         138.2604  140.7453  157.1645 C.3     1  UNL1        0.2898
     22 O         137.7092  140.9336  158.5469 O.3     1  UNL1       -0.4628
     23 H         140.4187  138.0960  157.8519 H       1  UNL1        0.1565
     24 C         145.5422  140.7306  163.8996 C.3     1  UNL1        0.0319
     25 C         145.3305  142.2029  163.7062 C.3     1  UNL1        0.0304
     26 C         141.1187  144.0776  161.3090 C.ar    1  UNL1        0.1301
     27 C         141.7818  143.8679  159.9800 C.ar    1  UNL1        0.1655
     28 C         143.1663  143.2943  159.9147 C.ar    1  UNL1        0.1359
     29 N         143.8877  142.9305  161.1786 N.ar    1  UNL1       -0.2395
     30 C         143.2246  143.1403  162.5076 C.ar    1  UNL1        0.0954
     31 C         143.9459  142.7764  163.7714 C.ar    1  UNL1       -0.0014
     32 C         143.2829  142.9862  165.1004 C.ar    1  UNL1        0.0179
     33 C         141.8984  143.5597  165.1656 C.ar    1  UNL1        0.0986
     34 N         141.1770  143.9235  163.9018 N.ar    1  UNL1       -0.2420
     35 C         141.8401  143.7138  162.5728 C.ar    1  UNL1        0.1078
     36 C         139.7342  144.6511  161.3742 C.2     1  UNL1        0.3458
     37 O         139.5261  146.1282  161.2164 O.2     1  UNL1       -0.2447
     38 O         138.5579  143.7476  161.5971 O.3     1  UNL1       -0.4453
     39 C         137.7709  142.7462  163.8616 C.3     1  UNL1        0.0513
     40 C         137.7534  143.8610  162.8581 C.3     1  UNL1        0.2089
     41 O         141.0604  144.2317  158.7162 O.3     1  UNL1       -0.4696
     42 C         141.2538  145.5884  158.1061 C.3     1  UNL1        0.2525
@<TRIPOS>BOND
     1    39    40    1
     2    40    38    1
     3    38    36    1
     4    36    37    2
     5    36    26    1
     6    26    27   ar
     7    27    41    1
     8    41    42    1
     9    27    28   ar
    10    28    29   ar
    11    29    30   ar
    12    30    31   ar
    13    31    25    1
    14    25    24    1
    15    24     1    1
    16     1     2    1
    17     2     3    1
    18     3     4    1
    19     4     9    1
    20     9    11    1
    21    11    12    1
    22    12    13   ar
    23    13    14   ar
    24    14    15   ar
    25    15    16   ar
    26    16    17   ar
    27    16    18    1
    28    18    19   am
    29    19    20    2
    30    19    21    1
    31    21    22    1
    32     4     5    1
    33     5     6    1
    34     4     7    1
    35     7     8    1
    36    31    32   ar
    37    32    33   ar
    38    33    34   ar
    39    34    35   ar
    40    35    26   ar
    41    35    30   ar
    42     6     1    1
    43     8     1    1
    44    17    12   ar
    45    22    15    1
    46     9    10    1
    47    18    23    1
@<TRIPOS>MOLECULE
*****
 42 47 0 0 0
SMALL
GASTEIGER

@<TRIPOS>ATOM
      1 C         139.2702  139.3259  159.5977 C.3     1  UNL1        0.0932
      2 C         138.8480  140.7637  159.5280 C.3     1  UNL1        0.0286
      3 C         138.0522  141.3668  160.6473 C.3     1  UNL1        0.0193
      4 C         137.6786  140.5323  161.8364 C.3     1  UNL1        0.0700
      5 C         138.1007  139.0947  161.9062 C.3     1  UNL1        0.0193
      6 C         138.8966  138.4914  160.7869 C.3     1  UNL1        0.0286
      7 C         138.1155  140.1577  161.2476 C.3     1  UNL1        0.1562
      8 O         138.8351  139.6123  160.2354 O.3     1  UNL1       -0.3572
      9 N         136.8828  141.1355  162.9557 N.3     1  UNL1       -0.2926
     10 H         136.4832  140.3599  163.4841 H       1  UNL1        0.1236
     11 C         137.5515  142.0378  163.9500 C.3     1  UNL1        0.1152
     12 C         138.4097  141.4549  165.0334 C.ar    1  UNL1        0.0765
     13 C         138.2638  140.0103  165.4100 C.ar    1  UNL1        0.0193
     14 C         139.1219  139.4273  166.4934 C.ar    1  UNL1        0.0411
     15 C         140.1260  140.2889  167.2001 C.ar    1  UNL1        0.1708
     16 C         140.2719  141.7335  166.8235 C.ar    1  UNL1        0.1682
     17 N         139.4137  142.3165  165.7401 N.ar    1  UNL1       -0.2304
     18 N         141.2759  142.5951  167.5302 N.am    1  UNL1       -0.2639
     19 C         142.1341  142.0122  168.6136 C.2     1  UNL1        0.2718
     20 O         143.1382  142.8738  169.3203 O.2     1  UNL1       -0.2707
     21 C         141.9882  140.5676  168.9903 C.3     1  UNL1        0.2898
     22 O         140.9841  139.7059  168.2835 O.3     1  UNL1       -0.4628
     23 H         141.3717  143.5433  167.2830 H       1  UNL1        0.1565
     24 C         140.0660  138.7228  158.4784 C.3     1  UNL1        0.0319
     25 C         141.5266  139.0361  158.3430 C.3     1  UNL1        0.0304
     26 C         143.9697  141.7252  162.0579 C.ar    1  UNL1        0.1301
     27 C         143.4392  143.0041  161.4810 C.ar    1  UNL1        0.1655
     28 C         142.5631  142.9714  160.2638 C.ar    1  UNL1        0.1359
     29 N         142.2176  141.6596  159.6235 N.ar    1  UNL1       -0.2395
     30 C         142.7482  140.3806  160.2004 C.ar    1  UNL1        0.0954
     31 C         142.4027  139.0689  159.5601 C.ar    1  UNL1       -0.0014
     32 C         142.9333  137.7899  160.1370 C.ar    1  UNL1        0.0179
     33 C         143.8093  137.8227  161.3541 C.ar    1  UNL1        0.0986
     34 N         144.1548  139.1345  161.9944 N.ar    1  UNL1       -0.2420
     35 C         143.6242  140.4134  161.4176 C.ar    1  UNL1        0.1078
     36 C         144.8458  141.7579  163.2750 C.2     1  UNL1        0.3458
     37 O         146.3313  141.6042  163.1342 O.2     1  UNL1       -0.2447
     38 O         144.2364  141.9444  164.6329 O.3     1  UNL1       -0.4453
     39 C         143.7552  139.4917  165.3420 C.3     1  UNL1        0.0513
     40 C         143.2977  140.9113  165.1820 C.3     1  UNL1        0.2089
     41 O         143.7847  144.3158  162.1213 O.3     1  UNL1       -0.4696
     42 C         142.8786  144.9041  163.1620 C.3     1  UNL1        0.2525
@<TRIPOS>BOND
     1    39    40    1
     2    40    38    1
     3    38    36    1
     4    36    37    2
     5    36    26    1
     6    26    27   ar
     7    27    41    1
     8    41    42    1
     9    27    28   ar
    10    28    29   ar
    11    29    30   ar
    12    30    31   ar
    13    31    25    1
    14    25    24    1
    15    24     1    1
    16     1     2    1
    17     2     3    1
    18     3     4    1
    19     4     9    1
    20     9    11    1
    21    11    12    1
    22    12    13   ar
    23    13    14   ar
    24    14    15   ar
    25    15    16   ar
    26    16    17   ar
    27    16    18    1
    28    18    19   am
    29    19    20    2
    30    19    21    1
    31    21    22    1
    32     4     5    1
    33     5     6    1
    34     4     7    1
    35     7     8    1
    36    31    32   ar
    37    32    33   ar
    38    33    34   ar
    39    34    35   ar
    40    35    26   ar
    41    35    30   ar
    42     6     1    1
    43     8     1    1
    44    17    12   ar
    45    22    15    1
    46     9    10    1
    47    18    23    1
