@<TRIPOS>MOLECULE
*****
 38 41 0 0 0
SMALL
GASTEIGER

@<TRIPOS>ATOM
      1 C         142.9716  138.3735  157.5493 C.3     1  UNL1        0.1031
      2 C         141.4433  138.9866  161.7372 C.ar    1  UNL1        0.0536
      3 C         140.9077  139.8233  160.6133 C.ar    1  UNL1        0.0042
      4 C         141.4171  139.6189  159.2174 C.ar    1  UNL1       -0.0025
      5 C         142.4622  138.5779  158.9452 C.ar    1  UNL1       -0.0036
      6 C         142.9978  137.7412  160.0691 C.ar    1  UNL1       -0.0025
      7 C         142.4883  137.9456  161.4650 C.ar    1  UNL1        0.0042
      8 N         139.6297  138.5800  163.5525 N.am    1  UNL1       -0.2761
      9 C         140.9338  139.1909  163.1331 C.2     1  UNL1        0.2490
     10 O         141.7285  140.0062  164.1097 O.2     1  UNL1       -0.2699
     11 C         138.2213  139.9451  165.2564 C.3     1  UNL1        0.0233
     12 C         139.1202  138.7844  164.9485 C.3     1  UNL1        0.0938
     13 C         138.8349  137.7647  162.5759 C.3     1  UNL1        0.0938
     14 C         137.7187  138.4005  161.8015 C.3     1  UNL1        0.0233
     15 C         142.5873  137.1425  156.7834 C.ar    1  UNL1       -0.0024
     16 C         141.2218  137.0354  156.1716 C.ar    1  UNL1       -0.0026
     17 C         140.8375  135.8044  155.4057 C.ar    1  UNL1        0.0010
     18 C         141.8186  134.6803  155.2514 C.ar    1  UNL1        0.0147
     19 C         143.1840  134.7872  155.8631 C.ar    1  UNL1        0.0529
     20 C         143.5684  136.0184  156.6291 C.ar    1  UNL1        0.0121
     21 N         144.1652  133.6631  155.7088 N.am    1  UNL1       -0.2499
     22 C         143.9414  132.3678  156.4314 C.2     1  UNL1        0.4055
     23 O         142.7365  132.1967  157.3084 O.2     1  UNL1       -0.2261
     24 H         144.9560  133.7754  155.1333 H       1  UNL1        0.1582
     25 O         144.9225  131.2437  156.2772 O.3     1  UNL1       -0.4304
     26 C         144.7243  130.2177  155.2010 C.3     1  UNL1        0.2574
     27 N         143.8654  139.4003  156.9193 N.3     1  UNL1       -0.2644
     28 C         144.2176  139.2969  155.4649 C.3     1  UNL1        0.0901
     29 C         145.1114  140.3237  154.8349 C.3     1  UNL1        0.0899
     30 N         145.6529  141.4538  155.6592 N.3     1  UNL1       -0.2661
     31 C         145.3006  141.5572  157.1136 C.3     1  UNL1        0.0899
     32 C         144.4069  140.5305  157.7436 C.3     1  UNL1        0.0901
     33 C         146.5467  142.4806  155.0292 C.3     1  UNL1        0.1074
     34 C         147.9654  142.1324  154.6887 C.ar    1  UNL1        0.0440
     35 C         149.0418  141.7637  155.6662 C.ar    1  UNL1        0.1030
     36 N         150.2985  141.4951  154.8925 N.ar    1  UNL1       -0.2350
     37 C         149.9988  141.6978  153.4368 C.ar    1  UNL1        0.1343
     38 S         148.5569  142.0917  153.3107 S.2     1  UNL1       -0.0674
@<TRIPOS>BOND
     1    11    12    1
     2    12     8    1
     3     8    13    1
     4    13    14    1
     5     8     9   am
     6     9    10    2
     7     9     2    1
     8     2     3   ar
     9     3     4   ar
    10     4     5   ar
    11     5     1    1
    12     1    15    1
    13    15    16   ar
    14    16    17   ar
    15    17    18   ar
    16    18    19   ar
    17    19    21    1
    18    21    22   am
    19    22    23    2
    20    22    25    1
    21    25    26    1
    22    19    20   ar
    23     1    27    1
    24    27    28    1
    25    28    29    1
    26    29    30    1
    27    30    33    1
    28    33    34    1
    29    34    35   ar
    30    35    36   ar
    31    36    37   ar
    32    37    38   ar
    33    30    31    1
    34    31    32    1
    35     5     6   ar
    36     6     7   ar
    37     7     2   ar
    38    20    15   ar
    39    32    27    1
    40    38    34   ar
    41    21    24    1
@<TRIPOS>MOLECULE
*****
 38 41 0 0 0
SMALL
GASTEIGER

@<TRIPOS>ATOM
      1 C         141.0027  139.1501  158.5019 C.3     1  UNL1        0.1031
      2 C         139.8688  138.4416  162.7987 C.ar    1  UNL1        0.0536
      3 C         141.1963  139.0550  162.4646 C.ar    1  UNL1        0.0042
      4 C         141.5742  139.2912  161.0324 C.ar    1  UNL1       -0.0025
      5 C         140.6247  138.9139  159.9342 C.ar    1  UNL1       -0.0036
      6 C         139.2973  138.3005  160.2682 C.ar    1  UNL1       -0.0025
      7 C         138.9194  138.0644  161.7005 C.ar    1  UNL1        0.0042
      8 N         138.5847  139.1705  164.9364 N.am    1  UNL1       -0.2761
      9 C         139.4909  138.2055  164.2310 C.2     1  UNL1        0.2490
     10 O         140.0191  137.0044  164.9578 O.2     1  UNL1       -0.2699
     11 C         138.9833  139.5963  167.4682 C.3     1  UNL1        0.0233
     12 C         138.2068  138.9343  166.3687 C.3     1  UNL1        0.0938
     13 C         138.0564  140.3716  164.2096 C.3     1  UNL1        0.0938
     14 C         138.7279  141.7028  164.3736 C.3     1  UNL1        0.0233
     15 C         141.0259  140.5456  157.9526 C.ar    1  UNL1       -0.0024
     16 C         141.7761  140.8415  156.6878 C.ar    1  UNL1       -0.0026
     17 C         141.7992  142.2371  156.1385 C.ar    1  UNL1        0.0010
     18 C         141.0723  143.3369  156.8540 C.ar    1  UNL1        0.0147
     19 C         140.3221  143.0411  158.1188 C.ar    1  UNL1        0.0529
     20 C         140.2989  141.6454  158.6682 C.ar    1  UNL1        0.0121
     21 N         139.5952  144.1409  158.8344 N.am    1  UNL1       -0.2499
     22 C         140.3522  145.0937  159.7112 C.2     1  UNL1        0.4055
     23 O         141.8363  144.9468  159.8726 O.2     1  UNL1       -0.2261
     24 H         138.6211  144.2373  158.7285 H       1  UNL1        0.1582
     25 O         139.6252  146.1935  160.4267 O.3     1  UNL1       -0.4304
     26 C         139.6900  146.2861  161.9225 C.3     1  UNL1        0.2574
     27 N         141.3575  137.9906  157.6189 N.3     1  UNL1       -0.2644
     28 C         140.3766  137.4992  156.5960 C.3     1  UNL1        0.0901
     29 C         140.7314  136.3397  155.7129 C.3     1  UNL1        0.0899
     30 N         142.0671  135.6716  155.8528 N.3     1  UNL1       -0.2661
     31 C         143.0480  136.1630  156.8758 C.3     1  UNL1        0.0899
     32 C         142.6932  137.3225  157.7588 C.3     1  UNL1        0.0901
     33 C         142.4219  134.5121  154.9698 C.3     1  UNL1        0.1074
     34 C         142.8533  133.2106  155.5781 C.ar    1  UNL1        0.0440
     35 C         144.2155  132.9013  156.1245 C.ar    1  UNL1        0.1030
     36 N         144.2023  131.4894  156.6309 N.ar    1  UNL1       -0.2350
     37 C         142.8318  130.9261  156.3976 C.ar    1  UNL1        0.1343
     38 S         141.9980  131.9898  155.7469 S.2     1  UNL1       -0.0674
@<TRIPOS>BOND
     1    11    12    1
     2    12     8    1
     3     8    13    1
     4    13    14    1
     5     8     9   am
     6     9    10    2
     7     9     2    1
     8     2     3   ar
     9     3     4   ar
    10     4     5   ar
    11     5     1    1
    12     1    15    1
    13    15    16   ar
    14    16    17   ar
    15    17    18   ar
    16    18    19   ar
    17    19    21    1
    18    21    22   am
    19    22    23    2
    20    22    25    1
    21    25    26    1
    22    19    20   ar
    23     1    27    1
    24    27    28    1
    25    28    29    1
    26    29    30    1
    27    30    33    1
    28    33    34    1
    29    34    35   ar
    30    35    36   ar
    31    36    37   ar
    32    37    38   ar
    33    30    31    1
    34    31    32    1
    35     5     6   ar
    36     6     7   ar
    37     7     2   ar
    38    20    15   ar
    39    32    27    1
    40    38    34   ar
    41    21    24    1
@<TRIPOS>MOLECULE
*****
 38 41 0 0 0
SMALL
GASTEIGER

@<TRIPOS>ATOM
      1 C         142.6516  137.5708  156.9381 C.3     1  UNL1        0.1031
      2 C         144.9135  140.6701  154.5868 C.ar    1  UNL1        0.0536
      3 C         145.2901  139.2224  154.4763 C.ar    1  UNL1        0.0042
      4 C         144.5362  138.1893  155.2600 C.ar    1  UNL1       -0.0025
      5 C         143.4056  138.6039  156.1543 C.ar    1  UNL1       -0.0036
      6 C         143.0289  140.0516  156.2649 C.ar    1  UNL1       -0.0025
      7 C         143.7829  141.0847  155.4811 C.ar    1  UNL1        0.0042
      8 N         146.9267  142.2968  154.3615 N.am    1  UNL1       -0.2761
      9 C         145.6675  141.7032  153.8031 C.2     1  UNL1        0.2490
     10 O         145.1622  142.1427  152.4609 O.2     1  UNL1       -0.2699
     11 C         147.2608  144.7688  153.6352 C.3     1  UNL1        0.0233
     12 C         147.6806  143.3299  153.5778 C.3     1  UNL1        0.0938
     13 C         147.4320  141.8573  155.7038 C.3     1  UNL1        0.0938
     14 C         147.2698  142.7527  156.8962 C.3     1  UNL1        0.0233
     15 C         142.5764  136.1582  156.4392 C.ar    1  UNL1       -0.0024
     16 C         142.0674  135.8773  155.0564 C.ar    1  UNL1       -0.0026
     17 C         141.9921  134.4647  154.5574 C.ar    1  UNL1        0.0010
     18 C         142.4259  133.3330  155.4412 C.ar    1  UNL1        0.0147
     19 C         142.9349  133.6139  156.8240 C.ar    1  UNL1        0.0529
     20 C         143.0101  135.0265  157.3230 C.ar    1  UNL1        0.0121
     21 N         143.3687  132.4822  157.7078 N.am    1  UNL1       -0.2499
     22 C         144.5832  131.6767  157.3531 C.2     1  UNL1        0.4055
     23 O         145.3641  132.0028  156.1146 O.2     1  UNL1       -0.2261
     24 H         142.8562  132.2682  158.5206 H       1  UNL1        0.1582
     25 O         145.0170  130.5450  158.2369 O.3     1  UNL1       -0.4304
     26 C         144.1646  129.3163  158.3548 C.3     1  UNL1        0.2574
     27 N         141.9729  137.9502  158.2207 N.3     1  UNL1       -0.2644
     28 C         140.5096  138.2799  158.2260 C.3     1  UNL1        0.0901
     29 C         139.8308  138.6594  159.5087 C.3     1  UNL1        0.0899
     30 N         140.6154  138.7092  160.7862 N.3     1  UNL1       -0.2661
     31 C         142.0787  138.3795  160.7809 C.3     1  UNL1        0.0899
     32 C         142.7575  138.0000  159.4983 C.3     1  UNL1        0.0901
     33 C         139.9367  139.0887  162.0689 C.3     1  UNL1        0.1074
     34 C         139.2175  140.4005  162.1773 C.ar    1  UNL1        0.0440
     35 C         137.7513  140.6234  161.9526 C.ar    1  UNL1        0.1030
     36 N         137.4659  142.0805  162.1659 N.ar    1  UNL1       -0.2350
     37 C         138.7557  142.7582  162.5224 C.ar    1  UNL1        0.1343
     38 S         139.8383  141.7199  162.5295 S.2     1  UNL1       -0.0674
@<TRIPOS>BOND
     1    11    12    1
     2    12     8    1
     3     8    13    1
     4    13    14    1
     5     8     9   am
     6     9    10    2
     7     9     2    1
     8     2     3   ar
     9     3     4   ar
    10     4     5   ar
    11     5     1    1
    12     1    15    1
    13    15    16   ar
    14    16    17   ar
    15    17    18   ar
    16    18    19   ar
    17    19    21    1
    18    21    22   am
    19    22    23    2
    20    22    25    1
    21    25    26    1
    22    19    20   ar
    23     1    27    1
    24    27    28    1
    25    28    29    1
    26    29    30    1
    27    30    33    1
    28    33    34    1
    29    34    35   ar
    30    35    36   ar
    31    36    37   ar
    32    37    38   ar
    33    30    31    1
    34    31    32    1
    35     5     6   ar
    36     6     7   ar
    37     7     2   ar
    38    20    15   ar
    39    32    27    1
    40    38    34   ar
    41    21    24    1
@<TRIPOS>MOLECULE
*****
 38 41 0 0 0
SMALL
GASTEIGER

@<TRIPOS>ATOM
      1 C         141.5478  141.4712  162.8266 C.3     1  UNL1        0.1031
      2 C         142.3939  138.7796  159.3209 C.ar    1  UNL1        0.0536
      3 C         141.0079  138.8577  159.8892 C.ar    1  UNL1        0.0042
      4 C         140.7259  139.7549  161.0577 C.ar    1  UNL1       -0.0025
      5 C         141.8298  140.5740  161.6580 C.ar    1  UNL1       -0.0036
      6 C         143.2158  140.4959  161.0898 C.ar    1  UNL1       -0.0025
      7 C         143.4978  139.5987  159.9212 C.ar    1  UNL1        0.0042
      8 N         142.6940  138.4450  156.7621 N.am    1  UNL1       -0.2761
      9 C         142.6759  137.8824  158.1524 C.2     1  UNL1        0.2490
     10 O         142.9399  136.4226  158.3742 O.2     1  UNL1       -0.2699
     11 C         144.3705  137.0526  155.3475 C.3     1  UNL1        0.0233
     12 C         142.9761  137.5478  155.5935 C.3     1  UNL1        0.0938
     13 C         142.4301  139.9049  156.5402 C.3     1  UNL1        0.0938
     14 C         143.4385  140.7481  155.8177 C.3     1  UNL1        0.0233
     15 C         141.1600  142.9019  162.5972 C.ar    1  UNL1       -0.0024
     16 C         141.2853  143.9005  163.7095 C.ar    1  UNL1       -0.0026
     17 C         140.8975  145.3312  163.4802 C.ar    1  UNL1        0.0010
     18 C         140.3844  145.7634  162.1386 C.ar    1  UNL1        0.0147
     19 C         140.2591  144.7649  161.0263 C.ar    1  UNL1        0.0529
     20 C         140.6469  143.3341  161.2556 C.ar    1  UNL1        0.0121
     21 N         139.7460  145.1971  159.6847 N.am    1  UNL1       -0.2499
     22 C         140.7094  145.5892  158.6040 C.2     1  UNL1        0.4055
     23 O         142.1861  145.5491  158.8649 O.2     1  UNL1       -0.2261
     24 H         138.7768  145.2234  159.5134 H       1  UNL1        0.1582
     25 O         140.1963  146.0214  157.2624 O.3     1  UNL1       -0.4304
     26 C         141.0610  145.8736  156.0455 C.3     1  UNL1        0.2574
     27 N         141.6535  140.9377  164.2244 N.3     1  UNL1       -0.2644
     28 C         142.9802  140.9253  164.9242 C.3     1  UNL1        0.0901
     29 C         143.0859  140.3918  166.3221 C.3     1  UNL1        0.0899
     30 N         141.8649  139.8706  167.0203 N.3     1  UNL1       -0.2661
     31 C         140.5382  139.8830  166.3206 C.3     1  UNL1        0.0899
     32 C         140.4324  140.4165  164.9227 C.3     1  UNL1        0.0901
     33 C         141.9706  139.3370  168.4183 C.3     1  UNL1        0.1074
     34 C         141.6884  140.2343  169.5868 C.ar    1  UNL1        0.0440
     35 C         140.5724  140.0698  170.5754 C.ar    1  UNL1        0.1030
     36 N         140.6670  141.1873  171.5715 N.ar    1  UNL1       -0.2350
     37 C         141.8415  142.0426  171.1984 C.ar    1  UNL1        0.1343
     38 S         142.4728  141.4536  169.9718 S.2     1  UNL1       -0.0674
@<TRIPOS>BOND
     1    11    12    1
     2    12     8    1
     3     8    13    1
     4    13    14    1
     5     8     9   am
     6     9    10    2
     7     9     2    1
     8     2     3   ar
     9     3     4   ar
    10     4     5   ar
    11     5     1    1
    12     1    15    1
    13    15    16   ar
    14    16    17   ar
    15    17    18   ar
    16    18    19   ar
    17    19    21    1
    18    21    22   am
    19    22    23    2
    20    22    25    1
    21    25    26    1
    22    19    20   ar
    23     1    27    1
    24    27    28    1
    25    28    29    1
    26    29    30    1
    27    30    33    1
    28    33    34    1
    29    34    35   ar
    30    35    36   ar
    31    36    37   ar
    32    37    38   ar
    33    30    31    1
    34    31    32    1
    35     5     6   ar
    36     6     7   ar
    37     7     2   ar
    38    20    15   ar
    39    32    27    1
    40    38    34   ar
    41    21    24    1
@<TRIPOS>MOLECULE
*****
 38 41 0 0 0
SMALL
GASTEIGER

@<TRIPOS>ATOM
      1 C         141.3743  138.7505  158.3687 C.3     1  UNL1        0.1031
      2 C         141.4110  143.0543  157.0550 C.ar    1  UNL1        0.0536
      3 C         142.5305  142.1390  156.6566 C.ar    1  UNL1        0.0042
      4 C         142.5182  140.7044  157.0944 C.ar    1  UNL1       -0.0025
      5 C         141.3865  140.1851  157.9308 C.ar    1  UNL1       -0.0036
      6 C         140.2670  141.1005  158.3292 C.ar    1  UNL1       -0.0025
      7 C         140.2793  142.5351  157.8914 C.ar    1  UNL1        0.0042
      8 N         140.7031  144.8975  155.3664 N.am    1  UNL1       -0.2761
      9 C         141.4233  144.4890  156.6171 C.2     1  UNL1        0.2490
     10 O         142.1557  145.5150  157.4300 O.2     1  UNL1       -0.2699
     11 C         139.6407  147.2683  155.3964 C.3     1  UNL1        0.0233
     12 C         140.7153  146.3321  154.9285 C.3     1  UNL1        0.0938
     13 C         139.9706  143.8715  154.5535 C.3     1  UNL1        0.0938
     14 C         138.4869  143.7130  154.7066 C.3     1  UNL1        0.0233
     15 C         141.4526  137.6541  157.3480 C.ar    1  UNL1       -0.0024
     16 C         140.3188  137.4391  156.3897 C.ar    1  UNL1       -0.0026
     17 C         140.3971  136.3427  155.3691 C.ar    1  UNL1        0.0010
     18 C         141.6092  135.4613  155.3067 C.ar    1  UNL1        0.0147
     19 C         142.7430  135.6763  156.2649 C.ar    1  UNL1        0.0529
     20 C         142.6647  136.7727  157.2856 C.ar    1  UNL1        0.0121
     21 N         143.9551  134.7949  156.2025 N.am    1  UNL1       -0.2499
     22 C         143.8588  133.3566  156.6172 C.2     1  UNL1        0.4055
     23 O         142.5502  132.7997  157.0943 O.2     1  UNL1       -0.2261
     24 H         144.8139  135.1604  155.8893 H       1  UNL1        0.1582
     25 O         145.0709  132.4752  156.5547 O.3     1  UNL1       -0.4304
     26 C         144.9477  131.0644  156.0602 C.3     1  UNL1        0.2574
     27 N         141.2837  138.4123  159.8272 N.3     1  UNL1       -0.2644
     28 C         139.9417  138.2631  160.4806 C.3     1  UNL1        0.0901
     29 C         139.8512  137.9248  161.9392 C.3     1  UNL1        0.0899
     30 N         141.1026  137.7358  162.7443 N.3     1  UNL1       -0.2661
     31 C         142.4445  137.8850  162.0909 C.3     1  UNL1        0.0899
     32 C         142.5351  138.2232  160.6324 C.3     1  UNL1        0.0901
     33 C         141.0120  137.3975  164.2029 C.3     1  UNL1        0.1074
     34 C         140.0677  138.1527  165.0907 C.ar    1  UNL1        0.0440
     35 C         138.6766  137.7304  165.4600 C.ar    1  UNL1        0.1030
     36 N         138.0979  138.7793  166.3626 N.ar    1  UNL1       -0.2350
     37 C         139.1314  139.8500  166.5512 C.ar    1  UNL1        0.1343
     38 S         140.3489  139.4627  165.7652 S.2     1  UNL1       -0.0674
@<TRIPOS>BOND
     1    11    12    1
     2    12     8    1
     3     8    13    1
     4    13    14    1
     5     8     9   am
     6     9    10    2
     7     9     2    1
     8     2     3   ar
     9     3     4   ar
    10     4     5   ar
    11     5     1    1
    12     1    15    1
    13    15    16   ar
    14    16    17   ar
    15    17    18   ar
    16    18    19   ar
    17    19    21    1
    18    21    22   am
    19    22    23    2
    20    22    25    1
    21    25    26    1
    22    19    20   ar
    23     1    27    1
    24    27    28    1
    25    28    29    1
    26    29    30    1
    27    30    33    1
    28    33    34    1
    29    34    35   ar
    30    35    36   ar
    31    36    37   ar
    32    37    38   ar
    33    30    31    1
    34    31    32    1
    35     5     6   ar
    36     6     7   ar
    37     7     2   ar
    38    20    15   ar
    39    32    27    1
    40    38    34   ar
    41    21    24    1
@<TRIPOS>MOLECULE
*****
 38 41 0 0 0
SMALL
GASTEIGER

@<TRIPOS>ATOM
      1 C         141.7382  138.9951  158.1238 C.3     1  UNL1        0.1031
      2 C         141.6847  135.9912  154.7736 C.ar    1  UNL1        0.0536
      3 C         142.9836  136.3679  155.4225 C.ar    1  UNL1        0.0042
      4 C         143.0014  137.3692  156.5392 C.ar    1  UNL1       -0.0025
      5 C         141.7204  137.9938  157.0070 C.ar    1  UNL1       -0.0036
      6 C         140.4216  137.6171  156.3581 C.ar    1  UNL1       -0.0025
      7 C         140.4038  136.6158  155.2414 C.ar    1  UNL1        0.0042
      8 N         141.4853  133.5321  153.9595 N.am    1  UNL1       -0.2761
      9 C         141.6669  134.9899  153.6569 C.2     1  UNL1        0.2490
     10 O         141.8307  135.4465  152.2375 O.2     1  UNL1       -0.2699
     11 C         142.7044  131.7462  152.5191 C.3     1  UNL1        0.0233
     12 C         141.4675  132.5308  152.8428 C.3     1  UNL1        0.0938
     13 C         141.3215  133.0754  155.3790 C.3     1  UNL1        0.0938
     14 C         142.5102  132.5837  156.1505 C.3     1  UNL1        0.0233
     15 C         141.9723  140.4465  157.8261 C.ar    1  UNL1       -0.0024
     16 C         142.1914  140.8963  156.4119 C.ar    1  UNL1       -0.0026
     17 C         142.4254  142.3476  156.1142 C.ar    1  UNL1        0.0010
     18 C         142.4404  143.3493  157.2306 C.ar    1  UNL1        0.0147
     19 C         142.2214  142.8996  158.6447 C.ar    1  UNL1        0.0529
     20 C         141.9873  141.4482  158.9425 C.ar    1  UNL1        0.0121
     21 N         142.2363  143.9013  159.7611 N.am    1  UNL1       -0.2499
     22 C         140.9867  144.6539  160.1104 C.2     1  UNL1        0.4055
     23 O         139.7220  144.4047  159.3432 O.2     1  UNL1       -0.2261
     24 H         143.0664  144.0649  160.2646 H       1  UNL1        0.1582
     25 O         141.0017  145.6556  161.2268 O.3     1  UNL1       -0.4304
     26 C         139.7109  146.1328  161.8237 C.3     1  UNL1        0.2574
     27 N         141.5220  138.5450  159.5382 N.3     1  UNL1       -0.2644
     28 C         140.1319  138.4670  160.0962 C.3     1  UNL1        0.0901
     29 C         139.9157  138.0169  161.5107 C.3     1  UNL1        0.0899
     30 N         141.0896  137.6449  162.3671 N.3     1  UNL1       -0.2661
     31 C         142.4798  137.7229  161.8091 C.3     1  UNL1        0.0899
     32 C         142.6960  138.1730  160.3947 C.3     1  UNL1        0.0901
     33 C         140.8734  137.1947  163.7816 C.3     1  UNL1        0.1074
     34 C         140.0640  138.0381  164.7216 C.ar    1  UNL1        0.0440
     35 C         138.7363  137.6708  165.3150 C.ar    1  UNL1        0.1030
     36 N         138.2920  138.8026  166.1934 N.ar    1  UNL1       -0.2350
     37 C         139.3451  139.8695  166.1429 C.ar    1  UNL1        0.1343
     38 S         140.4404  139.3971  165.2333 S.2     1  UNL1       -0.0674
@<TRIPOS>BOND
     1    11    12    1
     2    12     8    1
     3     8    13    1
     4    13    14    1
     5     8     9   am
     6     9    10    2
     7     9     2    1
     8     2     3   ar
     9     3     4   ar
    10     4     5   ar
    11     5     1    1
    12     1    15    1
    13    15    16   ar
    14    16    17   ar
    15    17    18   ar
    16    18    19   ar
    17    19    21    1
    18    21    22   am
    19    22    23    2
    20    22    25    1
    21    25    26    1
    22    19    20   ar
    23     1    27    1
    24    27    28    1
    25    28    29    1
    26    29    30    1
    27    30    33    1
    28    33    34    1
    29    34    35   ar
    30    35    36   ar
    31    36    37   ar
    32    37    38   ar
    33    30    31    1
    34    31    32    1
    35     5     6   ar
    36     6     7   ar
    37     7     2   ar
    38    20    15   ar
    39    32    27    1
    40    38    34   ar
    41    21    24    1
@<TRIPOS>MOLECULE
*****
 38 41 0 0 0
SMALL
GASTEIGER

@<TRIPOS>ATOM
      1 C         143.0555  138.9218  157.7313 C.3     1  UNL1        0.1031
      2 C         141.6040  139.4007  161.9638 C.ar    1  UNL1        0.0536
      3 C         140.9343  140.1521  160.8517 C.ar    1  UNL1        0.0042
      4 C         141.4181  139.9925  159.4409 C.ar    1  UNL1       -0.0025
      5 C         142.5717  139.0814  159.1422 C.ar    1  UNL1       -0.0036
      6 C         143.2414  138.3300  160.2543 C.ar    1  UNL1       -0.0025
      7 C         142.7576  138.4897  161.6651 C.ar    1  UNL1        0.0042
      8 N         140.0098  138.6931  163.8893 N.am    1  UNL1       -0.2761
      9 C         141.1202  139.5603  163.3746 C.2     1  UNL1        0.2490
     10 O         141.7467  140.5871  164.2707 O.2     1  UNL1       -0.2699
     11 C         138.2656  139.6169  165.5789 C.3     1  UNL1        0.0233
     12 C         139.5259  138.8527  165.3002 C.3     1  UNL1        0.0938
     13 C         139.3832  137.6662  162.9932 C.3     1  UNL1        0.0938
     14 C         138.1916  138.0276  162.1569 C.3     1  UNL1        0.0233
     15 C         142.4981  137.8306  156.8662 C.ar    1  UNL1       -0.0024
     16 C         142.9162  136.4076  157.0913 C.ar    1  UNL1       -0.0026
     17 C         142.3588  135.3164  156.2262 C.ar    1  UNL1        0.0010
     18 C         141.3833  135.6480  155.1360 C.ar    1  UNL1        0.0147
     19 C         140.9652  137.0708  154.9109 C.ar    1  UNL1        0.0529
     20 C         141.5226  138.1622  155.7761 C.ar    1  UNL1        0.0121
     21 N         139.9898  137.4024  153.8207 N.am    1  UNL1       -0.2499
     22 C         138.5186  137.4257  154.1123 C.2     1  UNL1        0.4055
     23 O         138.0228  137.1173  155.4940 O.2     1  UNL1       -0.2261
     24 H         140.3151  137.6048  152.9139 H       1  UNL1        0.1582
     25 O         137.5431  137.7573  153.0221 O.3     1  UNL1       -0.4304
     26 C         136.9320  136.6592  152.2030 C.3     1  UNL1        0.2574
     27 N         144.0968  139.8534  157.1856 N.3     1  UNL1       -0.2644
     28 C         144.8118  139.5152  155.9111 C.3     1  UNL1        0.0901
     29 C         145.8531  140.4469  155.3654 C.3     1  UNL1        0.0899
     30 N         146.1793  141.7167  156.0942 N.3     1  UNL1       -0.2661
     31 C         145.4642  142.0549  157.3687 C.3     1  UNL1        0.0899
     32 C         144.4230  141.1233  157.9144 C.3     1  UNL1        0.0901
     33 C         147.2206  142.6484  155.5485 C.3     1  UNL1        0.1074
     34 C         148.3415  142.1113  154.7087 C.ar    1  UNL1        0.0440
     35 C         148.3182  141.9279  153.2201 C.ar    1  UNL1        0.1030
     36 N         149.6447  141.3666  152.8015 N.ar    1  UNL1       -0.2350
     37 C         150.4878  141.2030  154.0313 C.ar    1  UNL1        0.1343
     38 S         149.6824  141.6633  155.2101 S.2     1  UNL1       -0.0674
@<TRIPOS>BOND
     1    11    12    1
     2    12     8    1
     3     8    13    1
     4    13    14    1
     5     8     9   am
     6     9    10    2
     7     9     2    1
     8     2     3   ar
     9     3     4   ar
    10     4     5   ar
    11     5     1    1
    12     1    15    1
    13    15    16   ar
    14    16    17   ar
    15    17    18   ar
    16    18    19   ar
    17    19    21    1
    18    21    22   am
    19    22    23    2
    20    22    25    1
    21    25    26    1
    22    19    20   ar
    23     1    27    1
    24    27    28    1
    25    28    29    1
    26    29    30    1
    27    30    33    1
    28    33    34    1
    29    34    35   ar
    30    35    36   ar
    31    36    37   ar
    32    37    38   ar
    33    30    31    1
    34    31    32    1
    35     5     6   ar
    36     6     7   ar
    37     7     2   ar
    38    20    15   ar
    39    32    27    1
    40    38    34   ar
    41    21    24    1
@<TRIPOS>MOLECULE
*****
 38 41 0 0 0
SMALL
GASTEIGER

@<TRIPOS>ATOM
      1 C         141.7815  139.1816  157.8857 C.3     1  UNL1        0.1031
      2 C         143.7965  140.9000  161.5240 C.ar    1  UNL1        0.0536
      3 C         143.4934  141.7807  160.3482 C.ar    1  UNL1        0.0042
      4 C         142.8217  141.2079  159.1355 C.ar    1  UNL1       -0.0025
      5 C         142.4532  139.7544  159.0985 C.ar    1  UNL1       -0.0036
      6 C         142.7563  138.8737  160.2742 C.ar    1  UNL1       -0.0025
      7 C         143.4280  139.4465  161.4870 C.ar    1  UNL1        0.0042
      8 N         143.6435  141.9613  163.8904 N.am    1  UNL1       -0.2761
      9 C         144.4682  141.4728  162.7367 C.2     1  UNL1        0.2490
     10 O         145.9647  141.5571  162.7957 O.2     1  UNL1       -0.2699
     11 C         144.4636  144.0199  165.2468 C.3     1  UNL1        0.0233
     12 C         144.3152  142.5342  165.1031 C.3     1  UNL1        0.0938
     13 C         142.1470  141.8771  163.8314 C.3     1  UNL1        0.0938
     14 C         141.4356  140.7172  164.4628 C.3     1  UNL1        0.0233
     15 C         142.5023  138.1817  157.0311 C.ar    1  UNL1       -0.0024
     16 C         143.6561  138.6179  156.1775 C.ar    1  UNL1       -0.0026
     17 C         144.3770  137.6179  155.3229 C.ar    1  UNL1        0.0010
     18 C         143.9441  136.1817  155.3218 C.ar    1  UNL1        0.0147
     19 C         142.7904  135.7455  156.1754 C.ar    1  UNL1        0.0529
     20 C         142.0695  136.7455  157.0301 C.ar    1  UNL1        0.0121
     21 N         142.3575  134.3093  156.1743 N.am    1  UNL1       -0.2499
     22 C         143.0478  133.3173  157.0627 C.2     1  UNL1        0.4055
     23 O         144.1710  133.7614  157.9523 O.2     1  UNL1       -0.2261
     24 H         141.6204  134.0178  155.5905 H       1  UNL1        0.1582
     25 O         142.6149  131.8811  157.0616 O.3     1  UNL1       -0.4304
     26 C         143.6236  130.7936  157.2855 C.3     1  UNL1        0.2574
     27 N         140.3889  139.6088  157.5276 N.3     1  UNL1       -0.2644
     28 C         139.4325  140.0273  158.6046 C.3     1  UNL1        0.0901
     29 C         138.0398  140.4545  158.2464 C.3     1  UNL1        0.0899
     30 N         137.6038  140.4631  156.8113 N.3     1  UNL1       -0.2661
     31 C         138.5602  140.0445  155.7343 C.3     1  UNL1        0.0899
     32 C         139.9528  139.6174  156.0924 C.3     1  UNL1        0.0901
     33 C         136.2111  140.8903  156.4531 C.3     1  UNL1        0.1074
     34 C         135.8408  141.1120  155.0165 C.ar    1  UNL1        0.0440
     35 C         135.1931  140.1094  154.1081 C.ar    1  UNL1        0.1030
     36 N         135.0052  140.7531  152.7663 N.ar    1  UNL1       -0.2350
     37 C         135.5368  142.1535  152.8454 C.ar    1  UNL1        0.1343
     38 S         136.0533  142.3754  154.2361 S.2     1  UNL1       -0.0674
@<TRIPOS>BOND
     1    11    12    1
     2    12     8    1
     3     8    13    1
     4    13    14    1
     5     8     9   am
     6     9    10    2
     7     9     2    1
     8     2     3   ar
     9     3     4   ar
    10     4     5   ar
    11     5     1    1
    12     1    15    1
    13    15    16   ar
    14    16    17   ar
    15    17    18   ar
    16    18    19   ar
    17    19    21    1
    18    21    22   am
    19    22    23    2
    20    22    25    1
    21    25    26    1
    22    19    20   ar
    23     1    27    1
    24    27    28    1
    25    28    29    1
    26    29    30    1
    27    30    33    1
    28    33    34    1
    29    34    35   ar
    30    35    36   ar
    31    36    37   ar
    32    37    38   ar
    33    30    31    1
    34    31    32    1
    35     5     6   ar
    36     6     7   ar
    37     7     2   ar
    38    20    15   ar
    39    32    27    1
    40    38    34   ar
    41    21    24    1
@<TRIPOS>MOLECULE
*****
 38 41 0 0 0
SMALL
GASTEIGER

@<TRIPOS>ATOM
      1 C         141.4891  140.7059  157.5653 C.3     1  UNL1        0.1031
      2 C         139.0742  142.0705  161.1088 C.ar    1  UNL1        0.0536
      3 C         140.1200  141.0086  161.2780 C.ar    1  UNL1        0.0042
      4 C         140.9250  140.5537  160.0968 C.ar    1  UNL1       -0.0025
      5 C         140.6841  141.1608  158.7465 C.ar    1  UNL1       -0.0036
      6 C         139.6383  142.2226  158.5773 C.ar    1  UNL1       -0.0025
      7 C         138.8334  142.6775  159.7585 C.ar    1  UNL1        0.0042
      8 N         138.6844  143.7470  163.0548 N.am    1  UNL1       -0.2761
      9 C         138.2693  142.5254  162.2900 C.2     1  UNL1        0.2490
     10 O         137.0492  141.7585  162.7063 O.2     1  UNL1       -0.2699
     11 C         138.5644  144.8309  165.4130 C.3     1  UNL1        0.0233
     12 C         137.8795  144.2019  164.2360 C.3     1  UNL1        0.0938
     13 C         139.9045  144.5139  162.6386 C.3     1  UNL1        0.0938
     14 C         139.7595  145.8486  161.9696 C.3     1  UNL1        0.0233
     15 C         140.8700  139.8055  156.5377 C.ar    1  UNL1       -0.0024
     16 C         140.2151  140.3929  155.3227 C.ar    1  UNL1       -0.0026
     17 C         139.5960  139.4924  154.2951 C.ar    1  UNL1        0.0010
     18 C         139.6318  138.0046  154.4825 C.ar    1  UNL1        0.0147
     19 C         140.2867  137.4172  155.6974 C.ar    1  UNL1        0.0529
     20 C         140.9058  138.3177  156.7250 C.ar    1  UNL1        0.0121
     21 N         140.3225  135.9294  155.8847 N.am    1  UNL1       -0.2499
     22 C         141.5095  135.1425  155.4139 C.2     1  UNL1        0.4055
     23 O         142.6608  135.8435  154.7556 O.2     1  UNL1       -0.2261
     24 H         139.5669  135.4693  156.3167 H       1  UNL1        0.1582
     25 O         141.5453  133.6547  155.6012 O.3     1  UNL1       -0.4304
     26 C         142.6475  133.0258  156.4011 C.3     1  UNL1        0.2574
     27 N         142.9131  141.1515  157.4117 N.3     1  UNL1       -0.2644
     28 C         143.4092  142.3502  158.1645 C.3     1  UNL1        0.0901
     29 C         144.8333  142.7958  158.0109 C.3     1  UNL1        0.0899
     30 N         145.7612  142.0426  157.1044 N.3     1  UNL1       -0.2661
     31 C         145.2650  140.8438  156.3516 C.3     1  UNL1        0.0899
     32 C         143.8410  140.3982  156.5052 C.3     1  UNL1        0.0901
     33 C         147.1853  142.4881  156.9508 C.3     1  UNL1        0.1074
     34 C         147.8249  142.5007  155.5941 C.ar    1  UNL1        0.0440
     35 C         148.9967  141.6689  155.1640 C.ar    1  UNL1        0.1030
     36 N         149.3011  142.0015  153.7334 N.ar    1  UNL1       -0.2350
     37 C         148.3174  143.0388  153.2792 C.ar    1  UNL1        0.1343
     38 S         147.4050  143.3474  154.4292 S.2     1  UNL1       -0.0674
@<TRIPOS>BOND
     1    11    12    1
     2    12     8    1
     3     8    13    1
     4    13    14    1
     5     8     9   am
     6     9    10    2
     7     9     2    1
     8     2     3   ar
     9     3     4   ar
    10     4     5   ar
    11     5     1    1
    12     1    15    1
    13    15    16   ar
    14    16    17   ar
    15    17    18   ar
    16    18    19   ar
    17    19    21    1
    18    21    22   am
    19    22    23    2
    20    22    25    1
    21    25    26    1
    22    19    20   ar
    23     1    27    1
    24    27    28    1
    25    28    29    1
    26    29    30    1
    27    30    33    1
    28    33    34    1
    29    34    35   ar
    30    35    36   ar
    31    36    37   ar
    32    37    38   ar
    33    30    31    1
    34    31    32    1
    35     5     6   ar
    36     6     7   ar
    37     7     2   ar
    38    20    15   ar
    39    32    27    1
    40    38    34   ar
    41    21    24    1
