@<TRIPOS>MOLECULE
*****
 29 33 0 0 0
SMALL
GASTEIGER

@<TRIPOS>ATOM
      1 C         142.8933  143.2934  158.3535 C.ar    1  UNL1        0.1917
      2 N         142.1856  144.4088  157.6430 N.ar    1  UNL1       -0.1268
      3 N         141.3414  145.1361  158.6472 N.ar    1  UNL1       -0.1316
      4 C         141.5274  144.4701  159.9783 C.ar    1  UNL1        0.1615
      5 N         142.4866  143.3312  159.7968 N.ar    1  UNL1       -0.2940
      6 C         142.8657  142.4757  160.9691 C.3     1  UNL1        0.1302
      7 C         142.2856  142.7592  162.3231 C.3     1  UNL1        0.1186
      8 N         141.3264  143.8980  162.5047 N.am    1  UNL1       -0.2688
      9 C         140.7463  144.1815  163.8586 C.2     1  UNL1        0.2493
     10 O         139.7871  145.3203  164.0401 O.2     1  UNL1       -0.2699
     11 C         140.9473  144.7535  161.3322 C.3     1  UNL1        0.1343
     12 C         139.9881  145.8924  161.5138 C.3     1  UNL1        0.0298
     13 C         146.8373  141.2330  155.5108 C.3     1  UNL1        0.0744
     14 C         145.6543  141.3653  156.4235 C.ar    1  UNL1        0.1481
     15 N         144.9466  140.2398  157.1182 N.ar    1  UNL1       -0.1929
     16 S         143.8261  140.8252  157.9257 S.2     1  UNL1        0.0369
     17 C         143.8414  142.3123  157.7301 C.ar    1  UNL1        0.1652
     18 N         144.9713  142.6461  156.8016 N.ar    1  UNL1       -0.2190
     19 C         141.1254  143.3260  165.0309 C.ar    1  UNL1        0.0536
     20 C         140.0586  142.6752  165.8606 C.ar    1  UNL1        0.0045
     21 C         140.4377  141.8197  167.0330 C.ar    1  UNL1        0.0006
     22 C         141.8836  141.6151  167.3757 C.ar    1  UNL1        0.0060
     23 C         142.9504  142.2659  166.5460 C.ar    1  UNL1        0.0006
     24 C         142.5713  143.1214  165.3737 C.ar    1  UNL1        0.0045
     25 C         142.2628  140.7596  168.5481 C.ar    1  UNL1        0.0295
     26 C         142.2526  139.2602  168.5854 C.ar    1  UNL1        0.0070
     27 C         142.7022  138.8273  169.9494 C.ar    1  UNL1        0.0075
     28 C         142.9903  140.0593  170.7552 C.ar    1  UNL1        0.0354
     29 S         142.7187  141.2536  169.8891 S.2     1  UNL1       -0.0864
@<TRIPOS>BOND
     1    13    14    1
     2    14    15   ar
     3    15    16   ar
     4    16    17   ar
     5    17     1    1
     6     1     2   ar
     7     2     3   ar
     8     3     4   ar
     9     4     5   ar
    10     5     6    1
    11     6     7    1
    12     7     8    1
    13     8     9   am
    14     9    10    2
    15     9    19    1
    16    19    20   ar
    17    20    21   ar
    18    21    22   ar
    19    22    25    1
    20    25    26   ar
    21    26    27   ar
    22    27    28   ar
    23    28    29   ar
    24    22    23   ar
    25    23    24   ar
    26     8    11    1
    27    11    12    1
    28    17    18   ar
    29    18    14   ar
    30     5     1   ar
    31    24    19   ar
    32    11     4    1
    33    29    25   ar
@<TRIPOS>MOLECULE
*****
 29 33 0 0 0
SMALL
GASTEIGER

@<TRIPOS>ATOM
      1 C         140.6772  140.6646  168.1682 C.ar    1  UNL1        0.1917
      2 N         139.5303  139.8555  168.6973 N.ar    1  UNL1       -0.1268
      3 N         138.9476  139.0760  167.5558 N.ar    1  UNL1       -0.1316
      4 C         139.7343  139.4034  166.3214 C.ar    1  UNL1        0.1615
      5 N         140.8033  140.3853  166.6999 N.ar    1  UNL1       -0.2940
      6 C         141.7534  140.8980  165.6586 C.3     1  UNL1        0.1302
      7 C         141.6345  140.4290  164.2387 C.3     1  UNL1        0.1186
      8 N         140.5655  139.4472  163.8602 N.am    1  UNL1       -0.2688
      9 C         140.4466  138.9782  162.4404 C.2     1  UNL1        0.2493
     10 O         139.3776  137.9964  162.0619 O.2     1  UNL1       -0.2699
     11 C         139.6154  138.9344  164.9016 C.3     1  UNL1        0.1343
     12 C         138.5464  137.9526  164.5231 C.3     1  UNL1        0.0298
     13 C         144.9139  143.0068  170.2766 C.3     1  UNL1        0.0744
     14 C         143.4930  142.6671  169.9364 C.ar    1  UNL1        0.1481
     15 N         142.2710  143.3638  170.4573 N.ar    1  UNL1       -0.1929
     16 S         141.0674  142.6984  169.8583 S.2     1  UNL1        0.0369
     17 C         141.5456  141.5906  168.9673 C.ar    1  UNL1        0.1652
     18 N         143.0447  141.5712  169.0155 N.ar    1  UNL1       -0.2190
     19 C         141.3967  139.4910  161.3991 C.ar    1  UNL1        0.0536
     20 C         141.0589  140.7269  160.6192 C.ar    1  UNL1        0.0045
     21 C         142.0090  141.2397  159.5779 C.ar    1  UNL1        0.0006
     22 C         143.2969  140.5165  159.3165 C.ar    1  UNL1        0.0060
     23 C         143.6347  139.2806  160.0965 C.ar    1  UNL1        0.0006
     24 C         142.6846  138.7678  161.1378 C.ar    1  UNL1        0.0045
     25 C         144.2471  141.0293  158.2752 C.ar    1  UNL1        0.0295
     26 C         144.6446  140.3164  157.0167 C.ar    1  UNL1        0.0070
     27 C         145.6097  141.1915  156.2733 C.ar    1  UNL1        0.0075
     28 C         145.8087  142.4453  157.0723 C.ar    1  UNL1        0.0354
     29 S         144.9666  142.3451  158.3096 S.2     1  UNL1       -0.0864
@<TRIPOS>BOND
     1    13    14    1
     2    14    15   ar
     3    15    16   ar
     4    16    17   ar
     5    17     1    1
     6     1     2   ar
     7     2     3   ar
     8     3     4   ar
     9     4     5   ar
    10     5     6    1
    11     6     7    1
    12     7     8    1
    13     8     9   am
    14     9    10    2
    15     9    19    1
    16    19    20   ar
    17    20    21   ar
    18    21    22   ar
    19    22    25    1
    20    25    26   ar
    21    26    27   ar
    22    27    28   ar
    23    28    29   ar
    24    22    23   ar
    25    23    24   ar
    26     8    11    1
    27    11    12    1
    28    17    18   ar
    29    18    14   ar
    30     5     1   ar
    31    24    19   ar
    32    11     4    1
    33    29    25   ar
@<TRIPOS>MOLECULE
*****
 29 33 0 0 0
SMALL
GASTEIGER

@<TRIPOS>ATOM
      1 C         138.6088  139.7030  155.9308 C.ar    1  UNL1        0.1917
      2 N         139.4320  139.0892  154.8374 N.ar    1  UNL1       -0.1268
      3 N         140.6183  138.4229  155.4688 N.ar    1  UNL1       -0.1316
      4 C         140.5283  138.6250  156.9524 C.ar    1  UNL1        0.1615
      5 N         139.2864  139.4162  157.2379 N.ar    1  UNL1       -0.2940
      6 C         138.9329  139.7732  158.6513 C.3     1  UNL1        0.1302
      7 C         139.8215  139.3390  159.7792 C.3     1  UNL1        0.1186
      8 N         141.0634  138.5478  159.4936 N.am    1  UNL1       -0.2688
      9 C         141.9519  138.1135  160.6214 C.2     1  UNL1        0.2493
     10 O         143.1939  137.3223  160.3359 O.2     1  UNL1       -0.2699
     11 C         141.4169  138.1908  158.0802 C.3     1  UNL1        0.1343
     12 C         142.6588  137.3995  157.7946 C.3     1  UNL1        0.0298
     13 C         133.4787  140.9040  155.5837 C.3     1  UNL1        0.0744
     14 C         134.9741  141.0213  155.5895 C.ar    1  UNL1        0.1481
     15 N         135.7610  142.2755  155.3491 N.ar    1  UNL1       -0.1929
     16 S         137.2185  141.9343  155.4477 S.2     1  UNL1        0.0369
     17 C         137.3322  140.4693  155.7490 C.ar    1  UNL1        0.1652
     18 N         135.9451  139.9050  155.8366 N.ar    1  UNL1       -0.2190
     19 C         141.5985  138.4706  162.0347 C.ar    1  UNL1        0.0536
     20 C         140.7787  137.5271  162.8640 C.ar    1  UNL1        0.0045
     21 C         140.4253  137.8841  164.2774 C.ar    1  UNL1        0.0006
     22 C         140.8916  139.1846  164.8615 C.ar    1  UNL1        0.0060
     23 C         141.7114  140.1281  164.0322 C.ar    1  UNL1        0.0006
     24 C         142.0649  139.7711  162.6189 C.ar    1  UNL1        0.0045
     25 C         140.5382  139.5417  166.2749 C.ar    1  UNL1        0.0295
     26 C         139.1587  139.5486  166.8639 C.ar    1  UNL1        0.0070
     27 C         139.2702  139.9657  168.3005 C.ar    1  UNL1        0.0075
     28 C         140.7186  140.2166  168.5993 C.ar    1  UNL1        0.0354
     29 S         141.5023  139.9545  167.3473 S.2     1  UNL1       -0.0864
@<TRIPOS>BOND
     1    13    14    1
     2    14    15   ar
     3    15    16   ar
     4    16    17   ar
     5    17     1    1
     6     1     2   ar
     7     2     3   ar
     8     3     4   ar
     9     4     5   ar
    10     5     6    1
    11     6     7    1
    12     7     8    1
    13     8     9   am
    14     9    10    2
    15     9    19    1
    16    19    20   ar
    17    20    21   ar
    18    21    22   ar
    19    22    25    1
    20    25    26   ar
    21    26    27   ar
    22    27    28   ar
    23    28    29   ar
    24    22    23   ar
    25    23    24   ar
    26     8    11    1
    27    11    12    1
    28    17    18   ar
    29    18    14   ar
    30     5     1   ar
    31    24    19   ar
    32    11     4    1
    33    29    25   ar
@<TRIPOS>MOLECULE
*****
 29 33 0 0 0
SMALL
GASTEIGER

@<TRIPOS>ATOM
      1 C         142.9796  136.8629  156.1291 C.ar    1  UNL1        0.1917
      2 N         143.2335  137.6498  154.8776 N.ar    1  UNL1       -0.1268
      3 N         143.4788  139.0768  155.2692 N.ar    1  UNL1       -0.1316
      4 C         143.3765  139.1719  156.7627 C.ar    1  UNL1        0.1615
      5 N         143.0680  137.8035  157.2941 N.ar    1  UNL1       -0.2940
      6 C         142.9073  137.5909  158.7702 C.3     1  UNL1        0.1302
      7 C         143.0553  138.7466  159.7150 C.3     1  UNL1        0.1186
      8 N         143.3639  140.1150  159.1835 N.am    1  UNL1       -0.2688
      9 C         143.5118  141.2707  160.1281 C.2     1  UNL1        0.2493
     10 O         143.8204  142.6390  159.5967 O.2     1  UNL1       -0.2699
     11 C         143.5245  140.3276  157.7073 C.3     1  UNL1        0.1343
     12 C         143.8331  141.6959  157.1758 C.3     1  UNL1        0.0298
     13 C         140.9932  132.0795  155.1023 C.3     1  UNL1        0.0744
     14 C         141.7753  133.1946  155.7306 C.ar    1  UNL1        0.1481
     15 N         142.7051  133.0688  156.9010 N.ar    1  UNL1       -0.1929
     16 S         143.2694  134.4278  157.1927 S.2     1  UNL1        0.0369
     17 C         142.6884  135.3932  156.2026 C.ar    1  UNL1        0.1652
     18 N         141.7649  134.6311  155.2990 N.ar    1  UNL1       -0.2190
     19 C         143.3512  141.0580  161.6043 C.ar    1  UNL1        0.0536
     20 C         144.5332  140.6601  162.4377 C.ar    1  UNL1        0.0045
     21 C         144.3725  140.4475  163.9139 C.ar    1  UNL1        0.0006
     22 C         143.0299  140.6328  164.5566 C.ar    1  UNL1        0.0060
     23 C         141.8479  141.0307  163.7231 C.ar    1  UNL1        0.0006
     24 C         142.0086  141.2433  162.2470 C.ar    1  UNL1        0.0045
     25 C         142.8692  140.4202  166.0327 C.ar    1  UNL1        0.0295
     26 C         142.8635  139.0960  166.7373 C.ar    1  UNL1        0.0070
     27 C         142.6768  139.3518  168.2035 C.ar    1  UNL1        0.0075
     28 C         142.5672  140.8342  168.4051 C.ar    1  UNL1        0.0354
     29 S         142.6861  141.4945  167.0634 S.2     1  UNL1       -0.0864
@<TRIPOS>BOND
     1    13    14    1
     2    14    15   ar
     3    15    16   ar
     4    16    17   ar
     5    17     1    1
     6     1     2   ar
     7     2     3   ar
     8     3     4   ar
     9     4     5   ar
    10     5     6    1
    11     6     7    1
    12     7     8    1
    13     8     9   am
    14     9    10    2
    15     9    19    1
    16    19    20   ar
    17    20    21   ar
    18    21    22   ar
    19    22    25    1
    20    25    26   ar
    21    26    27   ar
    22    27    28   ar
    23    28    29   ar
    24    22    23   ar
    25    23    24   ar
    26     8    11    1
    27    11    12    1
    28    17    18   ar
    29    18    14   ar
    30     5     1   ar
    31    24    19   ar
    32    11     4    1
    33    29    25   ar
@<TRIPOS>MOLECULE
*****
 29 33 0 0 0
SMALL
GASTEIGER

@<TRIPOS>ATOM
      1 C         142.7026  140.0126  158.2072 C.ar    1  UNL1        0.1917
      2 N         141.8705  139.1000  157.3558 N.ar    1  UNL1       -0.1268
      3 N         140.7717  138.5422  158.2111 N.ar    1  UNL1       -0.1316
      4 C         140.9247  139.1101  159.5910 C.ar    1  UNL1        0.1615
      5 N         142.1180  140.0188  159.5886 N.ar    1  UNL1       -0.2940
      6 C         142.5182  140.7345  160.8446 C.3     1  UNL1        0.1302
      7 C         141.7250  140.5415  162.1031 C.3     1  UNL1        0.1186
      8 N         140.5317  139.6328  162.1054 N.am    1  UNL1       -0.2688
      9 C         139.7385  139.4397  163.3638 C.2     1  UNL1        0.2493
     10 O         138.5451  138.5310  163.3662 O.2     1  UNL1       -0.2699
     11 C         140.1315  138.9170  160.8494 C.3     1  UNL1        0.1343
     12 C         138.9381  138.0083  160.8518 C.3     1  UNL1        0.0298
     13 C         147.0957  141.4107  155.6330 C.3     1  UNL1        0.0744
     14 C         145.9270  141.4262  156.5731 C.ar    1  UNL1        0.1481
     15 N         145.5973  142.5140  157.5520 N.ar    1  UNL1       -0.1929
     16 S         144.3493  142.1168  158.2833 S.2     1  UNL1        0.0369
     17 C         143.9077  140.7836  157.7564 C.ar    1  UNL1        0.1652
     18 N         144.8827  140.3568  156.6994 N.ar    1  UNL1       -0.2190
     19 C         140.1387  140.1555  164.6198 C.ar    1  UNL1        0.0536
     20 C         139.5859  141.5183  164.9151 C.ar    1  UNL1        0.0045
     21 C         139.9861  142.2340  166.1711 C.ar    1  UNL1        0.0006
     22 C         140.9391  141.5869  167.1318 C.ar    1  UNL1        0.0060
     23 C         141.4919  140.2241  166.8366 C.ar    1  UNL1        0.0006
     24 C         141.0917  139.5084  165.5806 C.ar    1  UNL1        0.0045
     25 C         141.3394  142.3026  168.3879 C.ar    1  UNL1        0.0295
     26 C         140.5131  143.3113  169.1294 C.ar    1  UNL1        0.0070
     27 C         141.2992  143.7674  170.3227 C.ar    1  UNL1        0.0075
     28 C         142.6114  143.0405  170.3188 C.ar    1  UNL1        0.0354
     29 S         142.6362  142.1352  169.1229 S.2     1  UNL1       -0.0864
@<TRIPOS>BOND
     1    13    14    1
     2    14    15   ar
     3    15    16   ar
     4    16    17   ar
     5    17     1    1
     6     1     2   ar
     7     2     3   ar
     8     3     4   ar
     9     4     5   ar
    10     5     6    1
    11     6     7    1
    12     7     8    1
    13     8     9   am
    14     9    10    2
    15     9    19    1
    16    19    20   ar
    17    20    21   ar
    18    21    22   ar
    19    22    25    1
    20    25    26   ar
    21    26    27   ar
    22    27    28   ar
    23    28    29   ar
    24    22    23   ar
    25    23    24   ar
    26     8    11    1
    27    11    12    1
    28    17    18   ar
    29    18    14   ar
    30     5     1   ar
    31    24    19   ar
    32    11     4    1
    33    29    25   ar
@<TRIPOS>MOLECULE
*****
 29 33 0 0 0
SMALL
GASTEIGER

@<TRIPOS>ATOM
      1 C         138.4919  141.7151  162.9328 C.ar    1  UNL1        0.1917
      2 N         137.9432  143.0862  162.6702 N.ar    1  UNL1       -0.1268
      3 N         138.0265  143.3440  161.1948 N.ar    1  UNL1       -0.1316
      4 C         138.6266  142.1323  160.5456 C.ar    1  UNL1        0.1615
      5 N         138.9143  141.1255  161.6197 N.ar    1  UNL1       -0.2940
      6 C         139.5236  139.8020  161.2634 C.3     1  UNL1        0.1302
      7 C         139.8454  139.4852  159.8330 C.3     1  UNL1        0.1186
      8 N         139.5578  140.4920  158.7589 N.am    1  UNL1       -0.2688
      9 C         139.8795  140.1753  157.3284 C.2     1  UNL1        0.2493
     10 O         139.5919  141.1820  156.2543 O.2     1  UNL1       -0.2699
     11 C         138.9484  141.8155  159.1152 C.3     1  UNL1        0.1343
     12 C         138.6607  142.8223  158.0411 C.3     1  UNL1        0.0298
     13 C         137.7490  138.3787  166.9574 C.3     1  UNL1        0.0744
     14 C         138.2578  139.5167  166.1230 C.ar    1  UNL1        0.1481
     15 N         139.2714  140.5375  166.5482 N.ar    1  UNL1       -0.1929
     16 S         139.4824  141.4853  165.4048 S.2     1  UNL1        0.0369
     17 C         138.5993  141.0502  164.2731 C.ar    1  UNL1        0.1652
     18 N         137.8425  139.8335  164.7169 N.ar    1  UNL1       -0.2190
     19 C         140.4889  138.8518  156.9721 C.ar    1  UNL1        0.0536
     20 C         139.6538  137.7950  156.3120 C.ar    1  UNL1        0.0045
     21 C         140.2632  136.4714  155.9557 C.ar    1  UNL1        0.0006
     22 C         141.7077  136.2047  156.2595 C.ar    1  UNL1        0.0060
     23 C         142.5428  137.2615  156.9197 C.ar    1  UNL1        0.0006
     24 C         141.9334  138.5850  157.2760 C.ar    1  UNL1        0.0045
     25 C         142.3171  134.8812  155.9032 C.ar    1  UNL1        0.0295
     26 C         143.7000  134.4226  156.2601 C.ar    1  UNL1        0.0070
     27 C         143.8881  133.0419  155.7049 C.ar    1  UNL1        0.0075
     28 C         142.6215  132.6471  155.0049 C.ar    1  UNL1        0.0354
     29 S         141.6505  133.7839  155.1275 S.2     1  UNL1       -0.0864
@<TRIPOS>BOND
     1    13    14    1
     2    14    15   ar
     3    15    16   ar
     4    16    17   ar
     5    17     1    1
     6     1     2   ar
     7     2     3   ar
     8     3     4   ar
     9     4     5   ar
    10     5     6    1
    11     6     7    1
    12     7     8    1
    13     8     9   am
    14     9    10    2
    15     9    19    1
    16    19    20   ar
    17    20    21   ar
    18    21    22   ar
    19    22    25    1
    20    25    26   ar
    21    26    27   ar
    22    27    28   ar
    23    28    29   ar
    24    22    23   ar
    25    23    24   ar
    26     8    11    1
    27    11    12    1
    28    17    18   ar
    29    18    14   ar
    30     5     1   ar
    31    24    19   ar
    32    11     4    1
    33    29    25   ar
@<TRIPOS>MOLECULE
*****
 29 33 0 0 0
SMALL
GASTEIGER

@<TRIPOS>ATOM
      1 C         141.0087  140.9449  158.0387 C.ar    1  UNL1        0.1917
      2 N         140.8183  142.1109  157.1145 N.ar    1  UNL1       -0.1268
      3 N         140.8020  143.3612  157.9431 N.ar    1  UNL1       -0.1316
      4 C         140.9822  142.9679  159.3793 C.ar    1  UNL1        0.1615
      5 N         141.1099  141.4745  159.4384 N.ar    1  UNL1       -0.2940
      6 C         141.3019  140.7898  160.7592 C.3     1  UNL1        0.1302
      7 C         141.3662  141.5986  162.0209 C.3     1  UNL1        0.1186
      8 N         141.2385  143.0920  161.9618 N.am    1  UNL1       -0.2688
      9 C         141.3027  143.9007  163.2234 C.2     1  UNL1        0.2493
     10 O         141.1750  145.3941  163.1643 O.2     1  UNL1       -0.2699
     11 C         141.0464  143.7766  160.6410 C.3     1  UNL1        0.1343
     12 C         140.9187  145.2700  160.5819 C.3     1  UNL1        0.0298
     13 C         142.8715  136.1244  156.9553 C.3     1  UNL1        0.0744
     14 C         141.9407  137.2867  157.1362 C.ar    1  UNL1        0.1481
     15 N         140.4615  137.2787  156.8873 N.ar    1  UNL1       -0.1929
     16 S         139.9323  138.6482  157.1951 S.2     1  UNL1        0.0369
     17 C         141.0845  139.5024  157.6342 C.ar    1  UNL1        0.1652
     18 N         142.3257  138.6610  157.5978 N.ar    1  UNL1       -0.2190
     19 C         141.4947  143.2161  164.5441 C.ar    1  UNL1        0.0536
     20 C         142.8774  142.8907  165.0262 C.ar    1  UNL1        0.0045
     21 C         143.0694  142.2061  166.3471 C.ar    1  UNL1        0.0006
     22 C         141.8787  141.8468  167.1857 C.ar    1  UNL1        0.0060
     23 C         140.4961  142.1722  166.7036 C.ar    1  UNL1        0.0006
     24 C         140.3041  142.8568  165.3828 C.ar    1  UNL1        0.0045
     25 C         142.0707  141.1621  168.5065 C.ar    1  UNL1        0.0295
     26 C         142.4844  139.7344  168.7076 C.ar    1  UNL1        0.0070
     27 C         142.5520  139.4749  170.1834 C.ar    1  UNL1        0.0075
     28 C         142.1802  140.7424  170.8945 C.ar    1  UNL1        0.0354
     29 S         141.8828  141.7852  169.8580 S.2     1  UNL1       -0.0864
@<TRIPOS>BOND
     1    13    14    1
     2    14    15   ar
     3    15    16   ar
     4    16    17   ar
     5    17     1    1
     6     1     2   ar
     7     2     3   ar
     8     3     4   ar
     9     4     5   ar
    10     5     6    1
    11     6     7    1
    12     7     8    1
    13     8     9   am
    14     9    10    2
    15     9    19    1
    16    19    20   ar
    17    20    21   ar
    18    21    22   ar
    19    22    25    1
    20    25    26   ar
    21    26    27   ar
    22    27    28   ar
    23    28    29   ar
    24    22    23   ar
    25    23    24   ar
    26     8    11    1
    27    11    12    1
    28    17    18   ar
    29    18    14   ar
    30     5     1   ar
    31    24    19   ar
    32    11     4    1
    33    29    25   ar
@<TRIPOS>MOLECULE
*****
 29 33 0 0 0
SMALL
GASTEIGER

@<TRIPOS>ATOM
      1 C         140.2930  140.2053  158.1955 C.ar    1  UNL1        0.1917
      2 N         141.2894  139.4733  157.3463 N.ar    1  UNL1       -0.1268
      3 N         142.3917  138.9872  158.2400 N.ar    1  UNL1       -0.1316
      4 C         142.0764  139.4187  159.6416 C.ar    1  UNL1        0.1615
      5 N         140.7793  140.1716  159.6141 N.ar    1  UNL1       -0.2940
      6 C         140.2087  140.7291  160.8843 C.3     1  UNL1        0.1302
      7 C         140.9351  140.5338  162.1821 C.3     1  UNL1        0.1186
      8 N         142.2322  139.7810  162.2096 N.am    1  UNL1       -0.2688
      9 C         142.9587  139.5857  163.5073 C.2     1  UNL1        0.2493
     10 O         144.2558  138.8329  163.5348 O.2     1  UNL1       -0.2699
     11 C         142.8029  139.2234  160.9393 C.3     1  UNL1        0.1343
     12 C         144.1000  138.4706  160.9668 C.3     1  UNL1        0.0298
     13 C         135.5050  140.9332  156.0918 C.3     1  UNL1        0.0744
     14 C         136.8307  141.1912  156.7442 C.ar    1  UNL1        0.1481
     15 N         137.3500  142.5268  157.1877 N.ar    1  UNL1       -0.1929
     16 S         138.7103  142.3200  157.7854 S.2     1  UNL1        0.0369
     17 C         139.0315  140.8567  157.7112 C.ar    1  UNL1        0.1652
     18 N         137.8699  140.1590  157.0678 N.ar    1  UNL1       -0.2190
     19 C         142.3880  140.1432  164.7775 C.ar    1  UNL1        0.0536
     20 C         142.8034  141.5041  165.2525 C.ar    1  UNL1        0.0045
     21 C         142.2327  142.0616  166.5228 C.ar    1  UNL1        0.0006
     22 C         141.2467  141.2583  167.3180 C.ar    1  UNL1        0.0060
     23 C         140.8312  139.8975  166.8430 C.ar    1  UNL1        0.0006
     24 C         141.4019  139.3400  165.5728 C.ar    1  UNL1        0.0045
     25 C         140.6759  141.8159  168.5883 C.ar    1  UNL1        0.0295
     26 C         140.6903  143.2572  169.0032 C.ar    1  UNL1        0.0070
     27 C         140.0139  143.3621  170.3380 C.ar    1  UNL1        0.0075
     28 C         139.5815  141.9854  170.7479 C.ar    1  UNL1        0.0354
     29 S         139.9907  141.0298  169.6665 S.2     1  UNL1       -0.0864
@<TRIPOS>BOND
     1    13    14    1
     2    14    15   ar
     3    15    16   ar
     4    16    17   ar
     5    17     1    1
     6     1     2   ar
     7     2     3   ar
     8     3     4   ar
     9     4     5   ar
    10     5     6    1
    11     6     7    1
    12     7     8    1
    13     8     9   am
    14     9    10    2
    15     9    19    1
    16    19    20   ar
    17    20    21   ar
    18    21    22   ar
    19    22    25    1
    20    25    26   ar
    21    26    27   ar
    22    27    28   ar
    23    28    29   ar
    24    22    23   ar
    25    23    24   ar
    26     8    11    1
    27    11    12    1
    28    17    18   ar
    29    18    14   ar
    30     5     1   ar
    31    24    19   ar
    32    11     4    1
    33    29    25   ar
@<TRIPOS>MOLECULE
*****
 29 33 0 0 0
SMALL
GASTEIGER

@<TRIPOS>ATOM
      1 C         140.8792  140.1901  166.1393 C.ar    1  UNL1        0.1917
      2 N         141.9557  140.3572  167.1705 N.ar    1  UNL1       -0.1268
      3 N         142.9123  141.4018  166.6769 N.ar    1  UNL1       -0.1316
      4 C         142.4270  141.8804  165.3407 C.ar    1  UNL1        0.1615
      5 N         141.1706  141.1315  165.0084 N.ar    1  UNL1       -0.2940
      6 C         140.4540  141.4035  163.7190 C.3     1  UNL1        0.1302
      7 C         140.9940  142.4245  162.7618 C.3     1  UNL1        0.1186
      8 N         142.2505  143.1733  163.0941 N.am    1  UNL1       -0.2688
      9 C         142.7905  144.1942  162.1370 C.2     1  UNL1        0.2493
     10 O         144.0470  144.9431  162.4692 O.2     1  UNL1       -0.2699
     11 C         142.9670  142.9013  164.3835 C.3     1  UNL1        0.1343
     12 C         144.2235  143.6501  164.7158 C.3     1  UNL1        0.0298
     13 C         136.6053  137.6329  167.8928 C.3     1  UNL1        0.0744
     14 C         137.7512  138.0718  167.0301 C.ar    1  UNL1        0.1481
     15 N         138.0993  137.5207  165.6791 N.ar    1  UNL1       -0.1929
     16 S         139.3135  138.2472  165.1810 S.2     1  UNL1        0.0369
     17 C         139.7157  139.2472  166.2241 C.ar    1  UNL1        0.1652
     18 N         138.7502  139.1388  167.3670 N.ar    1  UNL1       -0.2190
     19 C         142.0739  144.4663  160.8476 C.ar    1  UNL1        0.0536
     20 C         140.9388  145.4462  160.8126 C.ar    1  UNL1        0.0045
     21 C         140.2223  145.7182  159.5231 C.ar    1  UNL1        0.0006
     22 C         140.6409  145.0103  158.2687 C.ar    1  UNL1        0.0060
     23 C         141.7760  144.0304  158.3037 C.ar    1  UNL1        0.0006
     24 C         142.4925  143.7583  159.5931 C.ar    1  UNL1        0.0045
     25 C         139.9244  145.2823  156.9792 C.ar    1  UNL1        0.0295
     26 C         139.6482  146.6348  156.3923 C.ar    1  UNL1        0.0070
     27 C         138.9114  146.4379  155.1007 C.ar    1  UNL1        0.0075
     28 C         138.7321  144.9637  154.8893 C.ar    1  UNL1        0.0354
     29 S         139.3582  144.2495  156.0504 S.2     1  UNL1       -0.0864
@<TRIPOS>BOND
     1    13    14    1
     2    14    15   ar
     3    15    16   ar
     4    16    17   ar
     5    17     1    1
     6     1     2   ar
     7     2     3   ar
     8     3     4   ar
     9     4     5   ar
    10     5     6    1
    11     6     7    1
    12     7     8    1
    13     8     9   am
    14     9    10    2
    15     9    19    1
    16    19    20   ar
    17    20    21   ar
    18    21    22   ar
    19    22    25    1
    20    25    26   ar
    21    26    27   ar
    22    27    28   ar
    23    28    29   ar
    24    22    23   ar
    25    23    24   ar
    26     8    11    1
    27    11    12    1
    28    17    18   ar
    29    18    14   ar
    30     5     1   ar
    31    24    19   ar
    32    11     4    1
    33    29    25   ar
