@<TRIPOS>MOLECULE
*****
 28 31 0 0 0
SMALL
GASTEIGER

@<TRIPOS>ATOM
      1 C         139.9249  140.0920  166.5529 C.3     1  UNL1        0.0517
      2 C         138.7112  140.0528  165.6723 C.3     1  UNL1        0.0241
      3 C         138.7195  139.2268  164.4201 C.3     1  UNL1        0.0726
      4 N         139.9415  138.4402  164.0486 N.3     1  UNL1       -0.2706
      5 C         141.1552  138.4795  164.9292 C.3     1  UNL1        0.1020
      6 C         141.1469  139.3054  166.1813 C.3     1  UNL1        0.1304
      7 O         142.3606  139.3446  167.0619 O.3     1  UNL1       -0.3827
      8 H         142.1891  139.9207  167.8232 H       1  UNL1        0.2104
      9 C         140.9827  142.8989  166.5053 C.3     1  UNL1        0.0307
     10 C         140.4455  142.3213  167.7812 C.ar    1  UNL1       -0.0257
     11 C         140.4373  143.1473  169.0334 C.ar    1  UNL1       -0.0046
     12 C         139.9001  142.5697  170.3092 C.ar    1  UNL1       -0.0003
     13 C         139.3712  141.1662  170.3330 C.ar    1  UNL1       -0.0003
     14 C         139.3795  140.3403  169.0809 C.ar    1  UNL1       -0.0045
     15 C         139.9166  140.9179  167.8050 C.ar    1  UNL1       -0.0240
     16 C         139.9497  137.6144  162.7965 C.3     1  UNL1        0.0725
     17 C         140.8485  137.9904  161.6559 C.3     1  UNL1        0.0232
     18 C         140.2578  138.4165  160.3446 C.3     1  UNL1        0.0291
     19 C         141.1565  138.7926  159.2040 C.ar    1  UNL1       -0.0062
     20 C         140.5658  139.2186  157.8927 C.ar    1  UNL1       -0.0014
     21 C         141.4646  139.5947  156.7521 C.ar    1  UNL1        0.0203
     22 C         142.9540  139.5446  156.9229 C.ar    1  UNL1        0.0985
     23 N         143.5446  139.1186  158.2342 N.ar    1  UNL1       -0.2461
     24 C         142.6459  138.7425  159.3747 C.ar    1  UNL1        0.0817
     25 C         143.2366  138.3164  160.6861 C.3     1  UNL1        0.1499
     26 O         144.7260  138.2664  160.8568 O.3     1  UNL1       -0.3785
     27 C         142.3379  137.9404  161.8266 C.3     1  UNL1        0.0371
     28 H         145.1555  138.5380  160.0306 H       1  UNL1        0.2108
@<TRIPOS>BOND
     1     9    10    1
     2    10    11   ar
     3    11    12   ar
     4    12    13   ar
     5    13    14   ar
     6    14    15   ar
     7     1    15    1
     8     1     2    1
     9     2     3    1
    10     3     4    1
    11     4    16    1
    12    17    16    1
    13    17    18    1
    14    18    19    1
    15    19    20   ar
    16    20    21   ar
    17    21    22   ar
    18    22    23   ar
    19    23    24   ar
    20    24    25    1
    21    25    26    1
    22    25    27    1
    23     4     5    1
    24     5     6    1
    25     6     7    1
    26    15    10   ar
    27     6     1    1
    28    27    17    1
    29    24    19   ar
    30    26    28    1
    31     7     8    1
@<TRIPOS>MOLECULE
*****
 28 31 0 0 0
SMALL
GASTEIGER

@<TRIPOS>ATOM
      1 C         140.2922  139.8751  167.2920 C.3     1  UNL1        0.0517
      2 C         138.9330  139.4105  166.8599 C.3     1  UNL1        0.0241
      3 C         138.7841  138.5743  165.6234 C.3     1  UNL1        0.0726
      4 N         139.9944  138.2028  164.8191 N.3     1  UNL1       -0.2706
      5 C         141.3536  138.6674  165.2511 C.3     1  UNL1        0.1020
      6 C         141.5025  139.5035  166.4875 C.3     1  UNL1        0.1304
      7 O         142.8618  139.9681  166.9195 O.3     1  UNL1       -0.3827
      8 H         142.7811  140.4933  167.7310 H       1  UNL1        0.2104
      9 C         140.3277  142.8675  167.0837 C.3     1  UNL1        0.0307
     10 C         140.4588  142.2074  168.4243 C.ar    1  UNL1       -0.0257
     11 C         140.6077  143.0435  169.6607 C.ar    1  UNL1       -0.0046
     12 C         140.7389  142.3834  171.0012 C.ar    1  UNL1       -0.0003
     13 C         140.7211  140.8870  171.1053 C.ar    1  UNL1       -0.0003
     14 C         140.5722  140.0510  169.8689 C.ar    1  UNL1       -0.0045
     15 C         140.4411  140.7111  168.5284 C.ar    1  UNL1       -0.0240
     16 C         139.8455  137.3668  163.5827 C.3     1  UNL1        0.0725
     17 C         139.4957  138.0155  162.2762 C.3     1  UNL1        0.0232
     18 C         140.5296  138.1309  161.1956 C.3     1  UNL1        0.0291
     19 C         140.1798  138.7797  159.8891 C.ar    1  UNL1       -0.0062
     20 C         141.2136  138.8951  158.8085 C.ar    1  UNL1       -0.0014
     21 C         140.8638  139.5438  157.5021 C.ar    1  UNL1        0.0203
     22 C         139.4801  140.0771  157.2763 C.ar    1  UNL1        0.0985
     23 N         138.4463  139.9617  158.3569 N.ar    1  UNL1       -0.2461
     24 C         138.7961  139.3130  159.6633 C.ar    1  UNL1        0.0817
     25 C         137.7622  139.1976  160.7440 C.3     1  UNL1        0.1499
     26 O         136.3785  139.7309  160.5182 O.3     1  UNL1       -0.3785
     27 C         138.1120  138.5488  162.0504 C.3     1  UNL1        0.0371
     28 H         136.3210  140.1148  159.6293 H       1  UNL1        0.2108
@<TRIPOS>BOND
     1     9    10    1
     2    10    11   ar
     3    11    12   ar
     4    12    13   ar
     5    13    14   ar
     6    14    15   ar
     7     1    15    1
     8     1     2    1
     9     2     3    1
    10     3     4    1
    11     4    16    1
    12    17    16    1
    13    17    18    1
    14    18    19    1
    15    19    20   ar
    16    20    21   ar
    17    21    22   ar
    18    22    23   ar
    19    23    24   ar
    20    24    25    1
    21    25    26    1
    22    25    27    1
    23     4     5    1
    24     5     6    1
    25     6     7    1
    26    15    10   ar
    27     6     1    1
    28    27    17    1
    29    24    19   ar
    30    26    28    1
    31     7     8    1
@<TRIPOS>MOLECULE
*****
 28 31 0 0 0
SMALL
GASTEIGER

@<TRIPOS>ATOM
      1 C         139.9451  141.2688  166.6393 C.3     1  UNL1        0.0517
      2 C         140.1760  142.7300  166.3911 C.3     1  UNL1        0.0241
      3 C         139.4951  143.4124  165.2419 C.3     1  UNL1        0.0726
      4 N         138.5832  142.6336  164.3409 N.3     1  UNL1       -0.2706
      5 C         138.3523  141.1724  164.5890 C.3     1  UNL1        0.1020
      6 C         139.0332  140.4900  165.7382 C.3     1  UNL1        0.1304
      7 O         138.8023  139.0288  165.9863 O.3     1  UNL1       -0.3827
      8 H         139.3132  138.7478  166.7615 H       1  UNL1        0.2104
      9 C         142.6341  139.9975  166.2488 C.3     1  UNL1        0.0307
     10 C         141.9705  139.9508  167.5932 C.ar    1  UNL1       -0.0257
     11 C         142.6515  139.2683  168.7424 C.ar    1  UNL1       -0.0046
     12 C         141.9880  139.2216  170.0868 C.ar    1  UNL1       -0.0003
     13 C         140.6434  139.8574  170.2821 C.ar    1  UNL1       -0.0003
     14 C         139.9625  140.5397  169.1329 C.ar    1  UNL1       -0.0045
     15 C         140.6260  140.5865  167.7885 C.ar    1  UNL1       -0.0240
     16 C         137.9023  143.3160  163.1917 C.3     1  UNL1        0.0725
     17 C         138.6087  143.4529  161.8755 C.3     1  UNL1        0.0232
     18 C         138.2129  142.5848  160.7180 C.3     1  UNL1        0.0291
     19 C         138.9193  142.7218  159.4018 C.ar    1  UNL1       -0.0062
     20 C         138.5235  141.8537  158.2443 C.ar    1  UNL1       -0.0014
     21 C         139.2298  141.9907  156.9282 C.ar    1  UNL1        0.0203
     22 C         140.3320  142.9957  156.7695 C.ar    1  UNL1        0.0985
     23 N         140.7278  143.8638  157.9270 N.ar    1  UNL1       -0.2461
     24 C         140.0214  143.7268  159.2431 C.ar    1  UNL1        0.0817
     25 C         140.4172  144.5949  160.4007 C.3     1  UNL1        0.1499
     26 O         141.5193  145.6000  160.2420 O.3     1  UNL1       -0.3785
     27 C         139.7108  144.4580  161.7168 C.3     1  UNL1        0.0371
     28 H         141.8662  145.5593  159.3371 H       1  UNL1        0.2108
@<TRIPOS>BOND
     1     9    10    1
     2    10    11   ar
     3    11    12   ar
     4    12    13   ar
     5    13    14   ar
     6    14    15   ar
     7     1    15    1
     8     1     2    1
     9     2     3    1
    10     3     4    1
    11     4    16    1
    12    17    16    1
    13    17    18    1
    14    18    19    1
    15    19    20   ar
    16    20    21   ar
    17    21    22   ar
    18    22    23   ar
    19    23    24   ar
    20    24    25    1
    21    25    26    1
    22    25    27    1
    23     4     5    1
    24     5     6    1
    25     6     7    1
    26    15    10   ar
    27     6     1    1
    28    27    17    1
    29    24    19   ar
    30    26    28    1
    31     7     8    1
@<TRIPOS>MOLECULE
*****
 28 31 0 0 0
SMALL
GASTEIGER

@<TRIPOS>ATOM
      1 C         140.3095  141.1353  166.9719 C.3     1  UNL1        0.0517
      2 C         140.5781  141.6412  165.5855 C.3     1  UNL1        0.0241
      3 C         139.8246  141.0715  164.4202 C.3     1  UNL1        0.0726
      4 N         138.8027  139.9960  164.6413 N.3     1  UNL1       -0.2706
      5 C         138.5342  139.4901  166.0277 C.3     1  UNL1        0.1020
      6 C         139.2875  140.0598  167.1929 C.3     1  UNL1        0.1304
      7 O         139.0190  139.5539  168.5793 O.3     1  UNL1       -0.3827
      8 H         139.5861  140.0240  169.2105 H       1  UNL1        0.2104
      9 C         142.8000  139.7817  167.9541 C.3     1  UNL1        0.0307
     10 C         142.3082  141.0282  168.6282 C.ar    1  UNL1       -0.0257
     11 C         143.0616  141.5978  169.7936 C.ar    1  UNL1       -0.0046
     12 C         142.5698  142.8443  170.4677 C.ar    1  UNL1       -0.0003
     13 C         141.3244  143.5211  169.9765 C.ar    1  UNL1       -0.0003
     14 C         140.5711  142.9514  168.8112 C.ar    1  UNL1       -0.0045
     15 C         141.0629  141.7050  168.1371 C.ar    1  UNL1       -0.0240
     16 C         138.0493  139.4263  163.4760 C.3     1  UNL1        0.0725
     17 C         138.7318  139.2600  162.1506 C.3     1  UNL1        0.0232
     18 C         140.1045  138.6590  162.0840 C.3     1  UNL1        0.0291
     19 C         140.7869  138.4927  160.7586 C.ar    1  UNL1       -0.0062
     20 C         142.1596  137.8917  160.6920 C.ar    1  UNL1       -0.0014
     21 C         142.8420  137.7254  159.3666 C.ar    1  UNL1        0.0203
     22 C         142.1517  138.1602  158.1079 C.ar    1  UNL1        0.0985
     23 N         140.7790  138.7612  158.1745 N.ar    1  UNL1       -0.2461
     24 C         140.0966  138.9274  159.4998 C.ar    1  UNL1        0.0817
     25 C         138.7239  139.5285  159.5665 C.3     1  UNL1        0.1499
     26 O         138.0336  139.9632  158.3077 O.3     1  UNL1       -0.3785
     27 C         138.0415  139.6948  160.8919 C.3     1  UNL1        0.0371
     28 H         138.6082  139.7869  157.5464 H       1  UNL1        0.2108
@<TRIPOS>BOND
     1     9    10    1
     2    10    11   ar
     3    11    12   ar
     4    12    13   ar
     5    13    14   ar
     6    14    15   ar
     7     1    15    1
     8     1     2    1
     9     2     3    1
    10     3     4    1
    11     4    16    1
    12    17    16    1
    13    17    18    1
    14    18    19    1
    15    19    20   ar
    16    20    21   ar
    17    21    22   ar
    18    22    23   ar
    19    23    24   ar
    20    24    25    1
    21    25    26    1
    22    25    27    1
    23     4     5    1
    24     5     6    1
    25     6     7    1
    26    15    10   ar
    27     6     1    1
    28    27    17    1
    29    24    19   ar
    30    26    28    1
    31     7     8    1
@<TRIPOS>MOLECULE
*****
 28 31 0 0 0
SMALL
GASTEIGER

@<TRIPOS>ATOM
      1 C         140.1952  142.3980  166.6981 C.3     1  UNL1        0.0517
      2 C         139.9084  143.5773  165.8165 C.3     1  UNL1        0.0241
      3 C         138.9720  143.4341  164.6534 C.3     1  UNL1        0.0726
      4 N         138.3224  142.1117  164.3719 N.3     1  UNL1       -0.2706
      5 C         138.6092  140.9324  165.2534 C.3     1  UNL1        0.1020
      6 C         139.5456  141.0756  166.4165 C.3     1  UNL1        0.1304
      7 O         139.8324  139.8963  167.2980 O.3     1  UNL1       -0.3827
      8 H         140.4524  140.1580  167.9965 H       1  UNL1        0.2104
      9 C         143.0855  141.6529  166.3973 C.3     1  UNL1        0.0307
     10 C         142.5767  142.1686  167.7107 C.ar    1  UNL1       -0.0257
     11 C         143.5131  142.3117  168.8738 C.ar    1  UNL1       -0.0046
     12 C         143.0043  142.8274  170.1873 C.ar    1  UNL1       -0.0003
     13 C         141.5590  143.2000  170.3376 C.ar    1  UNL1       -0.0003
     14 C         140.6227  143.0568  169.1746 C.ar    1  UNL1       -0.0045
     15 C         141.1315  142.5411  167.8611 C.ar    1  UNL1       -0.0240
     16 C         137.3861  141.9686  163.2089 C.3     1  UNL1        0.0725
     17 C         137.8339  141.2525  161.9692 C.3     1  UNL1        0.0232
     18 C         138.0447  142.0172  160.6961 C.3     1  UNL1        0.0291
     19 C         138.4925  141.3011  159.4564 C.ar    1  UNL1       -0.0062
     20 C         138.7033  142.0658  158.1833 C.ar    1  UNL1       -0.0014
     21 C         139.1510  141.3497  156.9437 C.ar    1  UNL1        0.0203
     22 C         139.3880  139.8689  156.9772 C.ar    1  UNL1        0.0985
     23 N         139.1772  139.1042  158.2503 N.ar    1  UNL1       -0.2461
     24 C         138.7295  139.8203  159.4899 C.ar    1  UNL1        0.0817
     25 C         138.5187  139.0556  160.7630 C.3     1  UNL1        0.1499
     26 O         138.7557  137.5748  160.7965 O.3     1  UNL1       -0.3785
     27 C         138.0709  139.7717  162.0026 C.3     1  UNL1        0.0371
     28 H         139.0386  137.2727  159.9192 H       1  UNL1        0.2108
@<TRIPOS>BOND
     1     9    10    1
     2    10    11   ar
     3    11    12   ar
     4    12    13   ar
     5    13    14   ar
     6    14    15   ar
     7     1    15    1
     8     1     2    1
     9     2     3    1
    10     3     4    1
    11     4    16    1
    12    17    16    1
    13    17    18    1
    14    18    19    1
    15    19    20   ar
    16    20    21   ar
    17    21    22   ar
    18    22    23   ar
    19    23    24   ar
    20    24    25    1
    21    25    26    1
    22    25    27    1
    23     4     5    1
    24     5     6    1
    25     6     7    1
    26    15    10   ar
    27     6     1    1
    28    27    17    1
    29    24    19   ar
    30    26    28    1
    31     7     8    1
@<TRIPOS>MOLECULE
*****
 28 31 0 0 0
SMALL
GASTEIGER

@<TRIPOS>ATOM
      1 C         139.8640  140.5340  167.1042 C.3     1  UNL1        0.0517
      2 C         139.0427  139.3244  166.7691 C.3     1  UNL1        0.0241
      3 C         138.3584  139.2278  165.4377 C.3     1  UNL1        0.0726
      4 N         138.4954  140.3408  164.4415 N.3     1  UNL1       -0.2706
      5 C         139.3168  141.5504  164.7767 C.3     1  UNL1        0.1020
      6 C         140.0010  141.6470  166.1080 C.3     1  UNL1        0.1304
      7 O         140.8223  142.8566  166.4431 O.3     1  UNL1       -0.3827
      8 H         141.1920  142.7596  167.3346 H       1  UNL1        0.2104
      9 C         142.6100  139.3818  167.4664 C.3     1  UNL1        0.0307
     10 C         141.9212  140.0545  168.6166 C.ar    1  UNL1       -0.0257
     11 C         142.6056  140.1511  169.9480 C.ar    1  UNL1       -0.0046
     12 C         141.9168  140.8238  171.0982 C.ar    1  UNL1       -0.0003
     13 C         140.5437  141.4000  170.9171 C.ar    1  UNL1       -0.0003
     14 C         139.8594  141.3034  169.5858 C.ar    1  UNL1       -0.0045
     15 C         140.5482  140.6306  168.4355 C.ar    1  UNL1       -0.0240
     16 C         137.8112  140.2442  163.1102 C.3     1  UNL1        0.0725
     17 C         138.5868  139.8237  161.8971 C.3     1  UNL1        0.0232
     18 C         139.9435  139.2031  162.0522 C.3     1  UNL1        0.0291
     19 C         140.7191  138.7826  160.8390 C.ar    1  UNL1       -0.0062
     20 C         142.0759  138.1621  160.9942 C.ar    1  UNL1       -0.0014
     21 C         142.8514  137.7416  159.7810 C.ar    1  UNL1        0.0203
     22 C         142.2702  137.9417  158.4128 C.ar    1  UNL1        0.0985
     23 N         140.9134  138.5623  158.2576 N.ar    1  UNL1       -0.2461
     24 C         140.1379  138.9827  159.4708 C.ar    1  UNL1        0.0817
     25 C         138.7811  139.6033  159.3157 C.3     1  UNL1        0.1499
     26 O         138.1998  139.8034  157.9474 O.3     1  UNL1       -0.3785
     27 C         138.0056  140.0238  160.5288 C.3     1  UNL1        0.0371
     28 H         138.8251  139.4801  157.2801 H       1  UNL1        0.2108
@<TRIPOS>BOND
     1     9    10    1
     2    10    11   ar
     3    11    12   ar
     4    12    13   ar
     5    13    14   ar
     6    14    15   ar
     7     1    15    1
     8     1     2    1
     9     2     3    1
    10     3     4    1
    11     4    16    1
    12    17    16    1
    13    17    18    1
    14    18    19    1
    15    19    20   ar
    16    20    21   ar
    17    21    22   ar
    18    22    23   ar
    19    23    24   ar
    20    24    25    1
    21    25    26    1
    22    25    27    1
    23     4     5    1
    24     5     6    1
    25     6     7    1
    26    15    10   ar
    27     6     1    1
    28    27    17    1
    29    24    19   ar
    30    26    28    1
    31     7     8    1
@<TRIPOS>MOLECULE
*****
 28 31 0 0 0
SMALL
GASTEIGER

@<TRIPOS>ATOM
      1 C         140.5781  142.9386  166.2481 C.3     1  UNL1        0.0517
      2 C         139.5490  143.8382  165.6303 C.3     1  UNL1        0.0241
      3 C         139.8461  144.5419  164.3393 C.3     1  UNL1        0.0726
      4 N         141.1721  144.3459  163.6661 N.3     1  UNL1       -0.2706
      5 C         142.2012  143.4462  164.2840 C.3     1  UNL1        0.1020
      6 C         141.9042  142.7426  165.5749 C.3     1  UNL1        0.1304
      7 O         142.9332  141.8430  166.1928 O.3     1  UNL1       -0.3827
      8 H         142.5837  141.4703  167.0173 H       1  UNL1        0.2104
      9 C         139.6300  140.0925  166.2215 C.3     1  UNL1        0.0307
     10 C         139.8070  140.8119  167.5258 C.ar    1  UNL1       -0.0257
     11 C         139.5100  140.1082  168.8168 C.ar    1  UNL1       -0.0046
     12 C         139.6870  140.8276  170.1211 C.ar    1  UNL1       -0.0003
     13 C         140.1611  142.2507  170.1343 C.ar    1  UNL1       -0.0003
     14 C         140.4581  142.9543  168.8434 C.ar    1  UNL1       -0.0045
     15 C         140.2811  142.2349  167.5391 C.ar    1  UNL1       -0.0240
     16 C         141.4691  145.0495  162.3752 C.3     1  UNL1        0.0725
     17 C         140.8249  144.5854  161.1025 C.3     1  UNL1        0.0232
     18 C         140.9072  145.4330  159.8677 C.3     1  UNL1        0.0291
     19 C         140.2629  144.9688  158.5951 C.ar    1  UNL1       -0.0062
     20 C         140.3452  145.8164  157.3603 C.ar    1  UNL1       -0.0014
     21 C         139.7010  145.3523  156.0877 C.ar    1  UNL1        0.0203
     22 C         138.9746  144.0405  156.0499 C.ar    1  UNL1        0.0985
     23 N         138.8923  143.1928  157.2847 N.ar    1  UNL1       -0.2461
     24 C         139.5365  143.6570  158.5573 C.ar    1  UNL1        0.0817
     25 C         139.4543  142.8094  159.7921 C.3     1  UNL1        0.1499
     26 O         138.7278  141.4976  159.7543 O.3     1  UNL1       -0.3785
     27 C         140.0985  143.2735  161.0647 C.3     1  UNL1        0.0371
     28 H         138.3734  141.3498  158.8636 H       1  UNL1        0.2108
@<TRIPOS>BOND
     1     9    10    1
     2    10    11   ar
     3    11    12   ar
     4    12    13   ar
     5    13    14   ar
     6    14    15   ar
     7     1    15    1
     8     1     2    1
     9     2     3    1
    10     3     4    1
    11     4    16    1
    12    17    16    1
    13    17    18    1
    14    18    19    1
    15    19    20   ar
    16    20    21   ar
    17    21    22   ar
    18    22    23   ar
    19    23    24   ar
    20    24    25    1
    21    25    26    1
    22    25    27    1
    23     4     5    1
    24     5     6    1
    25     6     7    1
    26    15    10   ar
    27     6     1    1
    28    27    17    1
    29    24    19   ar
    30    26    28    1
    31     7     8    1
@<TRIPOS>MOLECULE
*****
 28 31 0 0 0
SMALL
GASTEIGER

@<TRIPOS>ATOM
      1 C         140.7857  142.8192  166.2729 C.3     1  UNL1        0.0517
      2 C         139.8217  143.6684  165.4985 C.3     1  UNL1        0.0241
      3 C         140.2326  144.2595  164.1825 C.3     1  UNL1        0.0726
      4 N         141.6073  144.0014  163.6409 N.3     1  UNL1       -0.2706
      5 C         142.5713  143.1522  164.4153 C.3     1  UNL1        0.1020
      6 C         142.1605  142.5611  165.7312 C.3     1  UNL1        0.1304
      7 O         143.1245  141.7120  166.5056 O.3     1  UNL1       -0.3827
      8 H         142.7037  141.4117  167.3264 H       1  UNL1        0.2104
      9 C         139.7388  140.0104  166.3941 C.3     1  UNL1        0.0307
     10 C         139.8514  140.8237  167.6494 C.ar    1  UNL1       -0.0257
     11 C         139.4406  140.2325  168.9654 C.ar    1  UNL1       -0.0046
     12 C         139.5532  141.0458  170.2208 C.ar    1  UNL1       -0.0003
     13 C         140.0767  142.4502  170.1601 C.ar    1  UNL1       -0.0003
     14 C         140.4875  143.0413  168.8442 C.ar    1  UNL1       -0.0045
     15 C         140.3749  142.2281  167.5888 C.ar    1  UNL1       -0.0240
     16 C         142.0181  144.5925  162.3250 C.3     1  UNL1        0.0725
     17 C         141.2342  144.2799  161.0849 C.3     1  UNL1        0.0232
     18 C         140.6295  142.9193  160.9030 C.3     1  UNL1        0.0291
     19 C         139.8455  142.6066  159.6629 C.ar    1  UNL1       -0.0062
     20 C         139.2408  141.2461  159.4810 C.ar    1  UNL1       -0.0014
     21 C         138.4569  140.9335  158.2409 C.ar    1  UNL1        0.0203
     22 C         138.2777  141.9814  157.1828 C.ar    1  UNL1        0.0985
     23 N         138.8825  143.3420  157.3647 N.ar    1  UNL1       -0.2461
     24 C         139.6664  143.6546  158.6047 C.ar    1  UNL1        0.0817
     25 C         140.2711  145.0152  158.7867 C.3     1  UNL1        0.1499
     26 O         140.0919  146.0632  157.7285 O.3     1  UNL1       -0.3785
     27 C         141.0550  145.3278  160.0267 C.3     1  UNL1        0.0371
     28 H         139.5645  145.7001  156.9999 H       1  UNL1        0.2108
@<TRIPOS>BOND
     1     9    10    1
     2    10    11   ar
     3    11    12   ar
     4    12    13   ar
     5    13    14   ar
     6    14    15   ar
     7     1    15    1
     8     1     2    1
     9     2     3    1
    10     3     4    1
    11     4    16    1
    12    17    16    1
    13    17    18    1
    14    18    19    1
    15    19    20   ar
    16    20    21   ar
    17    21    22   ar
    18    22    23   ar
    19    23    24   ar
    20    24    25    1
    21    25    26    1
    22    25    27    1
    23     4     5    1
    24     5     6    1
    25     6     7    1
    26    15    10   ar
    27     6     1    1
    28    27    17    1
    29    24    19   ar
    30    26    28    1
    31     7     8    1
@<TRIPOS>MOLECULE
*****
 28 31 0 0 0
SMALL
GASTEIGER

@<TRIPOS>ATOM
      1 C         140.3557  141.1313  166.8933 C.3     1  UNL1        0.0517
      2 C         140.7227  141.6453  165.5327 C.3     1  UNL1        0.0241
      3 C         140.0648  141.0730  164.3122 C.3     1  UNL1        0.0726
      4 N         139.0400  139.9867  164.4522 N.3     1  UNL1       -0.2706
      5 C         138.6730  139.4726  165.8128 C.3     1  UNL1        0.1020
      6 C         139.3308  140.0449  167.0333 C.3     1  UNL1        0.1304
      7 O         138.9639  139.5309  168.3938 O.3     1  UNL1       -0.3827
      8 H         139.4771  140.0039  169.0674 H       1  UNL1        0.2104
      9 C         142.7111  139.7368  168.1210 C.3     1  UNL1        0.0307
     10 C         142.1912  141.0063  168.7276 C.ar    1  UNL1       -0.0257
     11 C         142.8491  141.5786  169.9482 C.ar    1  UNL1       -0.0046
     12 C         142.3293  142.8481  170.5549 C.ar    1  UNL1       -0.0003
     13 C         141.1516  143.5454  169.9409 C.ar    1  UNL1       -0.0003
     14 C         140.4937  142.9731  168.7204 C.ar    1  UNL1       -0.0045
     15 C         141.0135  141.7036  168.1138 C.ar    1  UNL1       -0.0240
     16 C         138.3821  139.4144  163.2317 C.3     1  UNL1        0.0725
     17 C         139.1980  139.1216  162.0075 C.3     1  UNL1        0.0232
     18 C         138.7298  139.5948  160.6633 C.3     1  UNL1        0.0291
     19 C         139.5457  139.3020  159.4391 C.ar    1  UNL1       -0.0062
     20 C         139.0774  139.7752  158.0949 C.ar    1  UNL1       -0.0014
     21 C         139.8933  139.4824  156.8708 C.ar    1  UNL1        0.0203
     22 C         141.1774  138.7164  156.9908 C.ar    1  UNL1        0.0985
     23 N         141.6456  138.2432  158.3349 N.ar    1  UNL1       -0.2461
     24 C         140.8297  138.5360  159.5591 C.ar    1  UNL1        0.0817
     25 C         141.2980  138.0628  160.9033 C.3     1  UNL1        0.1499
     26 O         142.5820  137.2969  161.0234 O.3     1  UNL1       -0.3785
     27 C         140.4821  138.3556  162.1275 C.3     1  UNL1        0.0371
     28 H         142.9812  137.1953  160.1452 H       1  UNL1        0.2108
@<TRIPOS>BOND
     1     9    10    1
     2    10    11   ar
     3    11    12   ar
     4    12    13   ar
     5    13    14   ar
     6    14    15   ar
     7     1    15    1
     8     1     2    1
     9     2     3    1
    10     3     4    1
    11     4    16    1
    12    17    16    1
    13    17    18    1
    14    18    19    1
    15    19    20   ar
    16    20    21   ar
    17    21    22   ar
    18    22    23   ar
    19    23    24   ar
    20    24    25    1
    21    25    26    1
    22    25    27    1
    23     4     5    1
    24     5     6    1
    25     6     7    1
    26    15    10   ar
    27     6     1    1
    28    27    17    1
    29    24    19   ar
    30    26    28    1
    31     7     8    1
