@<TRIPOS>MOLECULE
*****
 33 36 0 0 0
SMALL
GASTEIGER

@<TRIPOS>ATOM
      1 N         139.2329  139.6117  163.6151 N.pl3   1  UNL1       -0.3075
      2 C         138.7332  138.3743  162.9302 C.3     1  UNL1        0.0908
      3 C         138.7114  138.3033  161.4320 C.3     1  UNL1        0.0229
      4 C         139.1894  139.4695  160.6188 C.3     1  UNL1        0.0194
      5 C         139.6891  140.7069  161.3038 C.3     1  UNL1        0.0229
      6 C         139.7108  140.7779  162.8020 C.3     1  UNL1        0.0908
      7 C         139.2981  139.8248  168.1096 C.ar    1  UNL1        0.1392
      8 C         138.1915  139.0934  167.4094 C.ar    1  UNL1        0.0382
      9 C         138.1698  139.0223  165.9113 C.ar    1  UNL1        0.0176
     10 C         139.2546  139.6827  165.1133 C.ar    1  UNL1        0.0480
     11 C         140.3613  140.4142  165.8135 C.ar    1  UNL1        0.0176
     12 C         140.3830  140.4853  167.3116 C.ar    1  UNL1        0.0382
     13 O         139.3199  139.8959  169.6078 O.3     1  UNL1       -0.4694
     14 C         140.5458  140.3892  170.3175 C.3     1  UNL1        0.2469
     15 O         139.3274  142.6119  170.8876 O.co2   1  UNL1       -0.5454
     16 C         140.5280  141.7208  171.0077 C.2     1  UNL1        0.0940
     17 O         141.7110  142.1614  171.8181 O.co2   1  UNL1       -0.5454
     18 C         139.1676  139.3985  159.1207 C.3     1  UNL1        0.0722
     19 N         140.1696  138.5500  158.3954 N.3     1  UNL1       -0.2724
     20 C         139.7757  137.8340  157.1376 C.3     1  UNL1        0.0758
     21 C         140.7777  136.9855  156.4123 C.3     1  UNL1        0.0609
     22 C         142.1737  136.8529  156.9449 C.3     1  UNL1        0.1687
     23 C         142.5677  137.5689  158.2027 C.3     1  UNL1        0.0609
     24 C         141.5656  138.4174  158.9280 C.3     1  UNL1        0.0758
     25 O         143.1757  136.0044  156.2196 O.3     1  UNL1       -0.4790
     26 C         143.1092  134.5096  156.3254 C.ar    1  UNL1        0.1393
     27 C         142.0293  133.7543  155.6089 C.ar    1  UNL1        0.0378
     28 C         141.9628  132.2596  155.7147 C.ar    1  UNL1        0.0154
     29 C         142.9762  131.5200  156.5369 C.ar    1  UNL1        0.0684
     30 CL        142.9097  130.0253  156.6427 Cl      1  UNL1       -0.0814
     31 C         144.0561  132.2753  157.2534 C.ar    1  UNL1        0.0712
     32 CL        145.0695  131.5358  158.0757 Cl      1  UNL1       -0.0813
     33 C         144.1226  133.7701  157.1476 C.ar    1  UNL1        0.0491
@<TRIPOS>UNITY_ATOM_ATTR
15 1
charge -1
@<TRIPOS>BOND
     1    15    16   ar
     2    16    17   ar
     3    16    14    1
     4    14    13    1
     5    13     7    1
     6     7     8   ar
     7     8     9   ar
     8     9    10   ar
     9    10     1    1
    10     1     2    1
    11     2     3    1
    12     3     4    1
    13     4    18    1
    14    18    19    1
    15    19    20    1
    16    20    21    1
    17    21    22    1
    18    22    25    1
    19    25    26    1
    20    26    27   ar
    21    27    28   ar
    22    28    29   ar
    23    29    30    1
    24    29    31   ar
    25    31    32    1
    26    31    33   ar
    27    22    23    1
    28    23    24    1
    29     4     5    1
    30     5     6    1
    31    10    11   ar
    32    11    12   ar
    33    12     7   ar
    34     6     1    1
    35    24    19    1
    36    33    26   ar
@<TRIPOS>MOLECULE
*****
 33 36 0 0 0
SMALL
GASTEIGER

@<TRIPOS>ATOM
      1 N         139.2009  139.6808  163.6081 N.pl3   1  UNL1       -0.3075
      2 C         139.8096  140.7859  162.7969 C.3     1  UNL1        0.0908
      3 C         139.8000  140.7096  161.2989 C.3     1  UNL1        0.0229
      4 C         139.1817  139.5281  160.6121 C.3     1  UNL1        0.0194
      5 C         138.5730  138.4229  161.4233 C.3     1  UNL1        0.0229
      6 C         138.5826  138.4993  162.9213 C.3     1  UNL1        0.0908
      7 C         139.2297  139.9098  168.1022 C.ar    1  UNL1        0.1392
      8 C         140.2037  140.7241  167.3035 C.ar    1  UNL1        0.0382
      9 C         140.1941  140.6478  165.8054 C.ar    1  UNL1        0.0176
     10 C         139.2105  139.7571  165.1061 C.ar    1  UNL1        0.0480
     11 C         138.2365  138.9427  165.9049 C.ar    1  UNL1        0.0176
     12 C         138.2461  139.0190  167.4029 C.ar    1  UNL1        0.0382
     13 O         139.2393  139.9861  169.6002 O.3     1  UNL1       -0.4694
     14 C         140.4810  140.4201  170.3211 C.3     1  UNL1        0.2469
     15 O         141.7335  142.1467  171.8044 O.co2   1  UNL1       -0.5454
     16 C         140.5067  141.7324  171.0473 C.2     1  UNL1        0.0940
     17 O         139.3055  142.6303  171.0164 O.co2   1  UNL1       -0.5454
     18 C         139.1721  139.4517  159.1140 C.3     1  UNL1        0.0722
     19 N         140.1738  138.5931  158.4004 N.3     1  UNL1       -0.2724
     20 C         141.5563  138.4310  158.9594 C.3     1  UNL1        0.0758
     21 C         142.5579  137.5723  158.2458 C.3     1  UNL1        0.0609
     22 C         142.1772  136.8757  156.9731 C.3     1  UNL1        0.1687
     23 C         140.7947  137.0378  156.4140 C.3     1  UNL1        0.0609
     24 C         139.7930  137.8965  157.1277 C.3     1  UNL1        0.0758
     25 O         143.1789  136.0170  156.2594 O.3     1  UNL1       -0.4790
     26 C         143.1224  134.5247  156.3993 C.ar    1  UNL1        0.1393
     27 C         144.0622  133.8228  157.3342 C.ar    1  UNL1        0.0378
     28 C         144.0057  132.3305  157.4740 C.ar    1  UNL1        0.0154
     29 C         143.0092  131.5399  156.6789 C.ar    1  UNL1        0.0684
     30 CL        142.9527  130.0475  156.8188 Cl      1  UNL1       -0.0814
     31 C         142.0693  132.2417  155.7440 C.ar    1  UNL1        0.0712
     32 CL        141.0729  131.4512  154.9490 Cl      1  UNL1       -0.0813
     33 C         142.1259  133.7341  155.6042 C.ar    1  UNL1        0.0491
@<TRIPOS>UNITY_ATOM_ATTR
15 1
charge -1
@<TRIPOS>BOND
     1    15    16   ar
     2    16    17   ar
     3    16    14    1
     4    14    13    1
     5    13     7    1
     6     7     8   ar
     7     8     9   ar
     8     9    10   ar
     9    10     1    1
    10     1     2    1
    11     2     3    1
    12     3     4    1
    13     4    18    1
    14    18    19    1
    15    19    20    1
    16    20    21    1
    17    21    22    1
    18    22    25    1
    19    25    26    1
    20    26    27   ar
    21    27    28   ar
    22    28    29   ar
    23    29    30    1
    24    29    31   ar
    25    31    32    1
    26    31    33   ar
    27    22    23    1
    28    23    24    1
    29     4     5    1
    30     5     6    1
    31    10    11   ar
    32    11    12   ar
    33    12     7   ar
    34     6     1    1
    35    24    19    1
    36    33    26   ar
@<TRIPOS>MOLECULE
*****
 33 36 0 0 0
SMALL
GASTEIGER

@<TRIPOS>ATOM
      1 N         140.9061  142.4571  166.4282 N.pl3   1  UNL1       -0.3075
      2 C         140.0714  143.3069  165.5167 C.3     1  UNL1        0.0908
      3 C         140.7188  144.0632  164.3946 C.3     1  UNL1        0.0229
      4 C         142.2009  143.9696  164.1841 C.3     1  UNL1        0.0194
      5 C         143.0357  143.1197  165.0957 C.3     1  UNL1        0.0229
      6 C         142.3883  142.3635  166.2177 C.3     1  UNL1        0.0908
      7 C         138.9638  140.1884  169.7943 C.ar    1  UNL1        0.1392
      8 C         139.6771  141.4782  170.0725 C.ar    1  UNL1        0.0382
      9 C         140.3245  142.2345  168.9505 C.ar    1  UNL1        0.0176
     10 C         140.2587  141.7009  167.5502 C.ar    1  UNL1        0.0480
     11 C         139.5454  140.4110  167.2720 C.ar    1  UNL1        0.0176
     12 C         138.8980  139.6548  168.3940 C.ar    1  UNL1        0.0382
     13 O         138.3164  139.4321  170.9163 O.3     1  UNL1       -0.4694
     14 C         136.8593  139.0836  170.8433 C.3     1  UNL1        0.2469
     15 O         136.9031  136.6578  171.7725 O.co2   1  UNL1       -0.5454
     16 C         136.2943  138.0284  171.7474 C.2     1  UNL1        0.0940
     17 O         135.1205  138.3439  172.6264 O.co2   1  UNL1       -0.5454
     18 C         142.8484  144.7258  163.0621 C.3     1  UNL1        0.0722
     19 N         143.2340  144.0117  161.8007 N.3     1  UNL1       -0.2724
     20 C         144.5419  143.2814  161.7221 C.3     1  UNL1        0.0758
     21 C         144.9276  142.5673  160.4607 C.3     1  UNL1        0.0609
     22 C         144.0054  142.5834  159.2778 C.3     1  UNL1        0.1687
     23 C         142.6976  143.3137  159.3563 C.3     1  UNL1        0.0609
     24 C         142.3118  144.0278  160.6178 C.3     1  UNL1        0.0758
     25 O         144.3911  141.8692  158.0163 O.3     1  UNL1       -0.4790
     26 C         143.8540  140.4968  157.7372 C.ar    1  UNL1        0.1393
     27 C         143.2849  139.6727  158.8539 C.ar    1  UNL1        0.0378
     28 C         142.7478  138.3003  158.5748 C.ar    1  UNL1        0.0154
     29 C         142.7798  137.7519  157.1790 C.ar    1  UNL1        0.0684
     30 CL        142.2427  136.3795  156.8999 Cl      1  UNL1       -0.0814
     31 C         143.3489  138.5760  156.0623 C.ar    1  UNL1        0.0712
     32 CL        143.3809  138.0277  154.6665 Cl      1  UNL1       -0.0813
     33 C         143.8860  139.9485  156.3414 C.ar    1  UNL1        0.0491
@<TRIPOS>UNITY_ATOM_ATTR
15 1
charge -1
@<TRIPOS>BOND
     1    15    16   ar
     2    16    17   ar
     3    16    14    1
     4    14    13    1
     5    13     7    1
     6     7     8   ar
     7     8     9   ar
     8     9    10   ar
     9    10     1    1
    10     1     2    1
    11     2     3    1
    12     3     4    1
    13     4    18    1
    14    18    19    1
    15    19    20    1
    16    20    21    1
    17    21    22    1
    18    22    25    1
    19    25    26    1
    20    26    27   ar
    21    27    28   ar
    22    28    29   ar
    23    29    30    1
    24    29    31   ar
    25    31    32    1
    26    31    33   ar
    27    22    23    1
    28    23    24    1
    29     4     5    1
    30     5     6    1
    31    10    11   ar
    32    11    12   ar
    33    12     7   ar
    34     6     1    1
    35    24    19    1
    36    33    26   ar
@<TRIPOS>MOLECULE
*****
 33 36 0 0 0
SMALL
GASTEIGER

@<TRIPOS>ATOM
      1 N         141.0456  140.1643  163.8242 N.pl3   1  UNL1       -0.3075
      2 C         140.0805  139.0610  163.5059 C.3     1  UNL1        0.0908
      3 C         139.6037  138.8648  162.0973 C.3     1  UNL1        0.0229
      4 C         140.0921  139.7718  161.0070 C.3     1  UNL1        0.0194
      5 C         141.0572  140.8750  161.3253 C.3     1  UNL1        0.0229
      6 C         141.5339  141.0713  162.7339 C.3     1  UNL1        0.0908
      7 C         142.4758  140.7530  168.0500 C.ar    1  UNL1        0.1392
      8 C         142.5815  139.4037  167.4036 C.ar    1  UNL1        0.0382
      9 C         142.1048  139.2074  165.9950 C.ar    1  UNL1        0.0176
     10 C         141.5223  140.3605  165.2328 C.ar    1  UNL1        0.0480
     11 C         141.4166  141.7099  165.8792 C.ar    1  UNL1        0.0176
     12 C         141.8934  141.9062  167.2879 C.ar    1  UNL1        0.0382
     13 O         142.9526  140.9493  169.4587 O.3     1  UNL1       -0.4694
     14 C         142.0955  140.5099  170.6086 C.3     1  UNL1        0.2469
     15 O         140.7328  142.1017  172.1445 O.co2   1  UNL1       -0.5454
     16 C         140.8236  141.2420  170.9187 C.2     1  UNL1        0.0940
     17 O         139.6424  141.1145  170.0029 O.co2   1  UNL1       -0.5454
     18 C         139.6153  139.5755  159.5983 C.3     1  UNL1        0.0722
     19 N         140.3902  138.6992  158.6595 N.3     1  UNL1       -0.2724
     20 C         139.7150  138.1037  157.4597 C.3     1  UNL1        0.0758
     21 C         140.4899  137.2273  156.5209 C.3     1  UNL1        0.0609
     22 C         141.9401  136.9464  156.7818 C.3     1  UNL1        0.1687
     23 C         142.6153  137.5418  157.9815 C.3     1  UNL1        0.0609
     24 C         141.8404  138.4182  158.9204 C.3     1  UNL1        0.0758
     25 O         142.7150  136.0699  155.8429 O.3     1  UNL1       -0.4790
     26 C         142.8503  134.6031  156.1256 C.ar    1  UNL1        0.1393
     27 C         141.8683  133.6326  155.5392 C.ar    1  UNL1        0.0378
     28 C         142.0036  132.1657  155.8218 C.ar    1  UNL1        0.0154
     29 C         143.1209  131.6693  156.6909 C.ar    1  UNL1        0.0684
     30 CL        143.2562  130.2024  156.9736 Cl      1  UNL1       -0.0814
     31 C         144.1029  132.6398  157.2773 C.ar    1  UNL1        0.0712
     32 CL        145.2201  132.1434  158.1464 Cl      1  UNL1       -0.0813
     33 C         143.9675  134.1067  156.9946 C.ar    1  UNL1        0.0491
@<TRIPOS>UNITY_ATOM_ATTR
15 1
charge -1
@<TRIPOS>BOND
     1    15    16   ar
     2    16    17   ar
     3    16    14    1
     4    14    13    1
     5    13     7    1
     6     7     8   ar
     7     8     9   ar
     8     9    10   ar
     9    10     1    1
    10     1     2    1
    11     2     3    1
    12     3     4    1
    13     4    18    1
    14    18    19    1
    15    19    20    1
    16    20    21    1
    17    21    22    1
    18    22    25    1
    19    25    26    1
    20    26    27   ar
    21    27    28   ar
    22    28    29   ar
    23    29    30    1
    24    29    31   ar
    25    31    32    1
    26    31    33   ar
    27    22    23    1
    28    23    24    1
    29     4     5    1
    30     5     6    1
    31    10    11   ar
    32    11    12   ar
    33    12     7   ar
    34     6     1    1
    35    24    19    1
    36    33    26   ar
@<TRIPOS>MOLECULE
*****
 33 36 0 0 0
SMALL
GASTEIGER

@<TRIPOS>ATOM
      1 N         142.9302  140.7493  163.2820 N.pl3   1  UNL1       -0.3075
      2 C         142.0845  141.6676  162.4504 C.3     1  UNL1        0.0908
      3 C         142.2533  141.6986  160.9602 C.3     1  UNL1        0.0229
      4 C         143.2679  140.8114  160.3018 C.3     1  UNL1        0.0194
      5 C         144.1135  139.8932  161.1334 C.3     1  UNL1        0.0229
      6 C         143.9447  139.8622  162.6235 C.3     1  UNL1        0.0908
      7 C         142.4237  140.6562  167.7525 C.ar    1  UNL1        0.1392
      8 C         142.4452  141.9691  167.0273 C.ar    1  UNL1        0.0382
      9 C         142.6140  142.0001  165.5372 C.ar    1  UNL1        0.0176
     10 C         142.7614  140.7183  164.7722 C.ar    1  UNL1        0.0480
     11 C         142.7398  139.4055  165.4974 C.ar    1  UNL1        0.0176
     12 C         142.5710  139.3744  166.9875 C.ar    1  UNL1        0.0382
     13 O         142.2549  140.6252  169.2426 O.3     1  UNL1       -0.4694
     14 C         141.2978  139.6548  169.8689 C.3     1  UNL1        0.2469
     15 O         140.7733  141.0329  172.0080 O.co2   1  UNL1       -0.5454
     16 C         140.3182  140.1280  170.9016 C.2     1  UNL1        0.0940
     17 O         138.8835  139.6964  170.8279 O.co2   1  UNL1       -0.5454
     18 C         143.4367  140.8425  158.8116 C.3     1  UNL1        0.0722
     19 N         143.0028  139.6698  157.9831 N.3     1  UNL1       -0.2724
     20 C         141.8294  138.8404  158.4136 C.3     1  UNL1        0.0758
     21 C         141.3955  137.6677  157.5851 C.3     1  UNL1        0.0609
     22 C         142.1348  137.3244  156.3259 C.3     1  UNL1        0.1687
     23 C         143.3081  138.1538  155.8953 C.3     1  UNL1        0.0609
     24 C         143.7421  139.3265  156.7239 C.3     1  UNL1        0.0758
     25 O         141.7008  136.1517  155.4974 O.3     1  UNL1       -0.4790
     26 C         142.1319  134.7657  155.8755 C.ar    1  UNL1        0.1393
     27 C         141.3993  133.5768  155.3279 C.ar    1  UNL1        0.0378
     28 C         141.8303  132.1907  155.7061 C.ar    1  UNL1        0.0154
     29 C         142.9940  131.9935  156.6319 C.ar    1  UNL1        0.0684
     30 CL        143.4251  130.6075  157.0101 Cl      1  UNL1       -0.0814
     31 C         143.7266  133.1824  157.1795 C.ar    1  UNL1        0.0712
     32 CL        144.8902  132.9853  158.1053 Cl      1  UNL1       -0.0813
     33 C         143.2955  134.5685  156.8013 C.ar    1  UNL1        0.0491
@<TRIPOS>UNITY_ATOM_ATTR
15 1
charge -1
@<TRIPOS>BOND
     1    15    16   ar
     2    16    17   ar
     3    16    14    1
     4    14    13    1
     5    13     7    1
     6     7     8   ar
     7     8     9   ar
     8     9    10   ar
     9    10     1    1
    10     1     2    1
    11     2     3    1
    12     3     4    1
    13     4    18    1
    14    18    19    1
    15    19    20    1
    16    20    21    1
    17    21    22    1
    18    22    25    1
    19    25    26    1
    20    26    27   ar
    21    27    28   ar
    22    28    29   ar
    23    29    30    1
    24    29    31   ar
    25    31    32    1
    26    31    33   ar
    27    22    23    1
    28    23    24    1
    29     4     5    1
    30     5     6    1
    31    10    11   ar
    32    11    12   ar
    33    12     7   ar
    34     6     1    1
    35    24    19    1
    36    33    26   ar
@<TRIPOS>MOLECULE
*****
 33 36 0 0 0
SMALL
GASTEIGER

@<TRIPOS>ATOM
      1 N         142.8449  140.0801  163.2864 N.pl3   1  UNL1       -0.3075
      2 C         141.6742  140.7280  162.6084 C.3     1  UNL1        0.0908
      3 C         141.7054  140.9723  161.1287 C.3     1  UNL1        0.0229
      4 C         142.9072  140.5687  160.3271 C.3     1  UNL1        0.0194
      5 C         144.0779  139.9209  161.0051 C.3     1  UNL1        0.0229
      6 C         144.0467  139.6766  162.4848 C.3     1  UNL1        0.0908
      7 C         142.7513  139.3472  167.7253 C.ar    1  UNL1        0.1392
      8 C         142.0443  140.5367  167.1465 C.ar    1  UNL1        0.0382
      9 C         142.0754  140.7810  165.6669 C.ar    1  UNL1        0.0176
     10 C         142.8137  139.8358  164.7660 C.ar    1  UNL1        0.0480
     11 C         143.5208  138.6463  165.3448 C.ar    1  UNL1        0.0176
     12 C         143.4896  138.4020  166.8245 C.ar    1  UNL1        0.0382
     13 O         142.7202  139.1029  169.2050 O.3     1  UNL1       -0.4694
     14 C         141.5465  139.5649  170.0168 C.3     1  UNL1        0.2469
     15 O         142.6656  141.8644  170.4747 O.co2   1  UNL1       -0.5454
     16 C         141.6432  140.8244  170.8256 C.2     1  UNL1        0.0940
     17 O         140.7174  141.0440  171.9853 O.co2   1  UNL1       -0.5454
     18 C         142.9384  140.8130  158.8475 C.3     1  UNL1        0.0722
     19 N         142.7137  139.6765  157.8947 N.3     1  UNL1       -0.2724
     20 C         143.5897  139.5264  156.6863 C.3     1  UNL1        0.0758
     21 C         143.3650  138.3898  155.7336 C.3     1  UNL1        0.0609
     22 C         142.2643  137.4033  155.9892 C.3     1  UNL1        0.1687
     23 C         141.3883  137.5534  157.1976 C.3     1  UNL1        0.0609
     24 C         141.6130  138.6900  158.1504 C.3     1  UNL1        0.0758
     25 O         142.0396  136.2667  155.0365 O.3     1  UNL1       -0.4790
     26 C         142.2513  134.8533  155.4919 C.ar    1  UNL1        0.1393
     27 C         143.3205  134.5412  156.4965 C.ar    1  UNL1        0.0378
     28 C         143.5322  133.1278  156.9519 C.ar    1  UNL1        0.0154
     29 C         142.6745  132.0264  156.4027 C.ar    1  UNL1        0.0684
     30 CL        142.8862  130.6130  156.8581 Cl      1  UNL1       -0.0814
     31 C         141.6053  132.3385  155.3980 C.ar    1  UNL1        0.0712
     32 CL        140.7477  131.2373  154.8488 Cl      1  UNL1       -0.0813
     33 C         141.3937  133.7520  154.9426 C.ar    1  UNL1        0.0491
@<TRIPOS>UNITY_ATOM_ATTR
15 1
charge -1
@<TRIPOS>BOND
     1    15    16   ar
     2    16    17   ar
     3    16    14    1
     4    14    13    1
     5    13     7    1
     6     7     8   ar
     7     8     9   ar
     8     9    10   ar
     9    10     1    1
    10     1     2    1
    11     2     3    1
    12     3     4    1
    13     4    18    1
    14    18    19    1
    15    19    20    1
    16    20    21    1
    17    21    22    1
    18    22    25    1
    19    25    26    1
    20    26    27   ar
    21    27    28   ar
    22    28    29   ar
    23    29    30    1
    24    29    31   ar
    25    31    32    1
    26    31    33   ar
    27    22    23    1
    28    23    24    1
    29     4     5    1
    30     5     6    1
    31    10    11   ar
    32    11    12   ar
    33    12     7   ar
    34     6     1    1
    35    24    19    1
    36    33    26   ar
@<TRIPOS>MOLECULE
*****
 33 36 0 0 0
SMALL
GASTEIGER

@<TRIPOS>ATOM
      1 N         139.9663  140.9484  164.1845 N.pl3   1  UNL1       -0.3075
      2 C         140.8291  141.7927  163.2942 C.3     1  UNL1        0.0908
      3 C         140.7391  141.6458  161.8041 C.3     1  UNL1        0.0229
      4 C         139.7863  140.6547  161.2044 C.3     1  UNL1        0.0194
      5 C         138.9235  139.8104  162.0947 C.3     1  UNL1        0.0229
      6 C         139.0135  139.9573  163.5848 C.3     1  UNL1        0.0908
      7 C         140.2364  141.3890  168.6548 C.ar    1  UNL1        0.1392
      8 C         139.7133  140.1167  168.0567 C.ar    1  UNL1        0.0382
      9 C         139.6233  139.9699  166.5667 C.ar    1  UNL1        0.0176
     10 C         140.0563  141.0953  165.6746 C.ar    1  UNL1        0.0480
     11 C         140.5794  142.3675  166.2726 C.ar    1  UNL1        0.0176
     12 C         140.6695  142.5144  167.7627 C.ar    1  UNL1        0.0382
     13 O         140.3264  141.5358  170.1448 O.3     1  UNL1       -0.4694
     14 C         141.3286  140.7315  170.9185 C.3     1  UNL1        0.2469
     15 O         143.0956  139.0075  170.1090 O.co2   1  UNL1       -0.5454
     16 C         142.6710  140.4305  170.3208 C.2     1  UNL1        0.0940
     17 O         143.5888  141.5525  169.9349 O.co2   1  UNL1       -0.5454
     18 C         139.6962  140.5078  159.7143 C.3     1  UNL1        0.0722
     19 N         140.6597  139.6159  158.9890 N.3     1  UNL1       -0.2724
     20 C         140.6894  139.6062  157.4893 C.3     1  UNL1        0.0758
     21 C         141.6529  138.7143  156.7640 C.3     1  UNL1        0.0609
     22 C         142.5867  137.8320  157.5383 C.3     1  UNL1        0.1687
     23 C         142.5570  137.8416  159.0380 C.3     1  UNL1        0.0609
     24 C         141.5935  138.7336  159.7633 C.3     1  UNL1        0.0758
     25 O         143.5502  136.9400  156.8129 O.3     1  UNL1       -0.4790
     26 C         143.1643  135.5279  156.4859 C.ar    1  UNL1        0.1393
     27 C         143.4872  134.4208  157.4452 C.ar    1  UNL1        0.0378
     28 C         143.1014  133.0087  157.1182 C.ar    1  UNL1        0.0154
     29 C         142.3926  132.7035  155.8319 C.ar    1  UNL1        0.0684
     30 CL        142.0068  131.2914  155.5048 Cl      1  UNL1       -0.0814
     31 C         142.0697  133.8106  154.8726 C.ar    1  UNL1        0.0712
     32 CL        141.3610  133.5055  153.5863 Cl      1  UNL1       -0.0813
     33 C         142.4556  135.2228  155.1996 C.ar    1  UNL1        0.0491
@<TRIPOS>UNITY_ATOM_ATTR
15 1
charge -1
@<TRIPOS>BOND
     1    15    16   ar
     2    16    17   ar
     3    16    14    1
     4    14    13    1
     5    13     7    1
     6     7     8   ar
     7     8     9   ar
     8     9    10   ar
     9    10     1    1
    10     1     2    1
    11     2     3    1
    12     3     4    1
    13     4    18    1
    14    18    19    1
    15    19    20    1
    16    20    21    1
    17    21    22    1
    18    22    25    1
    19    25    26    1
    20    26    27   ar
    21    27    28   ar
    22    28    29   ar
    23    29    30    1
    24    29    31   ar
    25    31    32    1
    26    31    33   ar
    27    22    23    1
    28    23    24    1
    29     4     5    1
    30     5     6    1
    31    10    11   ar
    32    11    12   ar
    33    12     7   ar
    34     6     1    1
    35    24    19    1
    36    33    26   ar
@<TRIPOS>MOLECULE
*****
 33 36 0 0 0
SMALL
GASTEIGER

@<TRIPOS>ATOM
      1 N         142.7372  141.8769  163.5486 N.pl3   1  UNL1       -0.3075
      2 C         142.2112  142.8503  162.5359 C.3     1  UNL1        0.0908
      3 C         142.6313  142.7394  161.1002 C.3     1  UNL1        0.0229
      4 C         143.5774  141.6550  160.6773 C.3     1  UNL1        0.0194
      5 C         144.1034  140.6816  161.6900 C.3     1  UNL1        0.0229
      6 C         143.6833  140.7926  163.1257 C.3     1  UNL1        0.0908
      7 C         141.4769  142.2099  167.8557 C.ar    1  UNL1        0.1392
      8 C         142.9323  142.1164  167.5052 C.ar    1  UNL1        0.0382
      9 C         143.3524  142.0054  166.0695 C.ar    1  UNL1        0.0176
     10 C         142.3171  141.9879  164.9843 C.ar    1  UNL1        0.0480
     11 C         140.8616  142.0814  165.3348 C.ar    1  UNL1        0.0176
     12 C         140.4415  142.1924  166.7705 C.ar    1  UNL1        0.0382
     13 O         141.0568  142.3209  169.2914 O.3     1  UNL1       -0.4694
     14 C         139.7048  141.8303  169.7173 C.3     1  UNL1        0.2469
     15 O         139.4378  139.6422  171.0922 O.co2   1  UNL1       -0.5454
     16 C         139.4249  140.3578  169.7740 C.2     1  UNL1        0.0940
     17 O         139.1320  139.6008  168.5125 O.co2   1  UNL1       -0.5454
     18 C         143.9975  141.5440  159.2416 C.3     1  UNL1        0.0722
     19 N         143.4371  140.4528  158.3783 N.3     1  UNL1       -0.2724
     20 C         144.0655  140.1496  157.0504 C.3     1  UNL1        0.0758
     21 C         143.5051  139.0584  156.1872 C.3     1  UNL1        0.0609
     22 C         142.3162  138.2705  156.6517 C.3     1  UNL1        0.1687
     23 C         141.6878  138.5737  157.9795 C.3     1  UNL1        0.0609
     24 C         142.2482  139.6649  158.8429 C.3     1  UNL1        0.0758
     25 O         141.7557  137.1793  155.7884 O.3     1  UNL1       -0.4790
     26 C         142.0944  135.7467  156.0762 C.ar    1  UNL1        0.1393
     27 C         143.1705  135.4148  157.0671 C.ar    1  UNL1        0.0378
     28 C         143.5091  133.9822  157.3549 C.ar    1  UNL1        0.0154
     29 C         142.7716  132.8813  156.6518 C.ar    1  UNL1        0.0684
     30 CL        143.1102  131.4487  156.9396 Cl      1  UNL1       -0.0814
     31 C         141.6955  133.2132  155.6609 C.ar    1  UNL1        0.0712
     32 CL        140.9580  132.1124  154.9579 Cl      1  UNL1       -0.0813
     33 C         141.3569  134.6459  155.3732 C.ar    1  UNL1        0.0491
@<TRIPOS>UNITY_ATOM_ATTR
15 1
charge -1
@<TRIPOS>BOND
     1    15    16   ar
     2    16    17   ar
     3    16    14    1
     4    14    13    1
     5    13     7    1
     6     7     8   ar
     7     8     9   ar
     8     9    10   ar
     9    10     1    1
    10     1     2    1
    11     2     3    1
    12     3     4    1
    13     4    18    1
    14    18    19    1
    15    19    20    1
    16    20    21    1
    17    21    22    1
    18    22    25    1
    19    25    26    1
    20    26    27   ar
    21    27    28   ar
    22    28    29   ar
    23    29    30    1
    24    29    31   ar
    25    31    32    1
    26    31    33   ar
    27    22    23    1
    28    23    24    1
    29     4     5    1
    30     5     6    1
    31    10    11   ar
    32    11    12   ar
    33    12     7   ar
    34     6     1    1
    35    24    19    1
    36    33    26   ar
@<TRIPOS>MOLECULE
*****
 33 36 0 0 0
SMALL
GASTEIGER

@<TRIPOS>ATOM
      1 N         141.0577  143.7036  164.0068 N.pl3   1  UNL1       -0.3075
      2 C         139.6411  144.0129  163.6230 C.3     1  UNL1        0.0908
      3 C         139.3450  144.6487  162.2970 C.3     1  UNL1        0.0229
      4 C         140.4656  144.9752  161.3550 C.3     1  UNL1        0.0194
      5 C         141.8823  144.6659  161.7388 C.3     1  UNL1        0.0229
      6 C         142.1783  144.0301  163.0648 C.3     1  UNL1        0.0908
      7 C         141.9458  141.7962  167.9847 C.ar    1  UNL1        0.1392
      8 C         140.5670  142.3076  167.6893 C.ar    1  UNL1        0.0382
      9 C         140.2710  142.9434  166.3633 C.ar    1  UNL1        0.0176
     10 C         141.3537  143.0678  165.3328 C.ar    1  UNL1        0.0480
     11 C         142.7325  142.5564  165.6282 C.ar    1  UNL1        0.0176
     12 C         143.0286  141.9206  166.9541 C.ar    1  UNL1        0.0382
     13 O         142.2418  141.1604  169.3106 O.3     1  UNL1       -0.4694
     14 C         141.3736  140.0482  169.8196 C.3     1  UNL1        0.2469
     15 O         139.2571  139.3750  171.1676 O.co2   1  UNL1       -0.5454
     16 C         140.4180  140.2992  170.9482 C.2     1  UNL1        0.0940
     17 O         140.6233  141.4745  171.8575 O.co2   1  UNL1       -0.5454
     18 C         140.1696  145.6110  160.0290 C.3     1  UNL1        0.0722
     19 N         140.7215  145.0112  158.7698 N.3     1  UNL1       -0.2724
     20 C         141.7054  145.7821  157.9404 C.3     1  UNL1        0.0758
     21 C         142.2573  145.1824  156.6812 C.3     1  UNL1        0.0609
     22 C         141.8252  143.8118  156.2512 C.3     1  UNL1        0.1687
     23 C         140.8413  143.0409  157.0805 C.3     1  UNL1        0.0609
     24 C         140.2894  143.6407  158.3398 C.3     1  UNL1        0.0758
     25 O         142.3771  143.2121  154.9919 O.3     1  UNL1       -0.4790
     26 C         143.7979  143.4810  154.5931 C.ar    1  UNL1        0.1393
     27 C         144.1068  144.5652  153.6037 C.ar    1  UNL1        0.0378
     28 C         145.5276  144.8341  153.2049 C.ar    1  UNL1        0.0154
     29 C         146.6395  144.0188  153.7956 C.ar    1  UNL1        0.0684
     30 CL        148.0603  144.2877  153.3969 Cl      1  UNL1       -0.0814
     31 C         146.3306  142.9346  154.7851 C.ar    1  UNL1        0.0712
     32 CL        147.4425  142.1193  155.3758 Cl      1  UNL1       -0.0813
     33 C         144.9098  142.6657  155.1839 C.ar    1  UNL1        0.0491
@<TRIPOS>UNITY_ATOM_ATTR
15 1
charge -1
@<TRIPOS>BOND
     1    15    16   ar
     2    16    17   ar
     3    16    14    1
     4    14    13    1
     5    13     7    1
     6     7     8   ar
     7     8     9   ar
     8     9    10   ar
     9    10     1    1
    10     1     2    1
    11     2     3    1
    12     3     4    1
    13     4    18    1
    14    18    19    1
    15    19    20    1
    16    20    21    1
    17    21    22    1
    18    22    25    1
    19    25    26    1
    20    26    27   ar
    21    27    28   ar
    22    28    29   ar
    23    29    30    1
    24    29    31   ar
    25    31    32    1
    26    31    33   ar
    27    22    23    1
    28    23    24    1
    29     4     5    1
    30     5     6    1
    31    10    11   ar
    32    11    12   ar
    33    12     7   ar
    34     6     1    1
    35    24    19    1
    36    33    26   ar
