@<TRIPOS>MOLECULE
*****
 38 43 0 0 0
SMALL
GASTEIGER

@<TRIPOS>ATOM
      1 C         142.8421  138.0741  159.4819 C.ar    1  UNL1        0.1233
      2 C         142.2575  137.8823  160.8499 C.ar    1  UNL1        0.1180
      3 N         142.7959  138.9633  161.7397 N.ar    1  UNL1       -0.2233
      4 N         143.7132  139.8230  160.9216 N.ar    1  UNL1       -0.0634
      5 N         143.7418  139.2735  159.5262 N.ar    1  UNL1       -0.1287
      6 C         142.4735  139.1513  163.1925 C.3     1  UNL1        0.1827
      7 C         143.5330  138.7073  164.1571 C.3     1  UNL1        0.0339
      8 C         143.5149  138.7609  165.6560 C.3     1  UNL1        0.0041
      9 C         142.4329  139.2717  166.5607 C.3     1  UNL1        0.0183
     10 C         142.8193  139.1429  168.0043 C.3     1  UNL1        0.0016
     11 C         141.8746  139.5975  169.0770 C.3     1  UNL1        0.0001
     12 C         140.5434  140.1809  168.7060 C.3     1  UNL1        0.0017
     13 C         140.1569  140.3097  167.2624 C.3     1  UNL1        0.0198
     14 C         141.1017  139.8551  166.1898 C.3     1  UNL1        0.0756
     15 N         140.5238  140.0718  164.8226 N.am    1  UNL1       -0.2755
     16 C         141.1342  139.7586  163.4887 C.2     1  UNL1        0.2483
     17 O         140.2945  140.0974  162.2929 O.2     1  UNL1       -0.2728
     18 C         139.1542  140.6824  164.7843 C.3     1  UNL1        0.1201
     19 C         138.9859  142.1236  164.4038 C.ar    1  UNL1       -0.0023
     20 C         137.8276  142.5429  163.5480 C.ar    1  UNL1       -0.0026
     21 C         137.6592  143.9841  163.1675 C.ar    1  UNL1       -0.0003
     22 C         138.6492  145.0059  163.6429 C.ar    1  UNL1       -0.0000
     23 C         139.8075  144.5865  164.4987 C.ar    1  UNL1       -0.0003
     24 C         139.9759  143.1453  164.8792 C.ar    1  UNL1       -0.0026
     25 C         143.0777  135.0895  156.8768 C.ar    1  UNL1        0.1547
     26 C         143.3458  135.9466  158.0782 C.ar    1  UNL1        0.0400
     27 C         142.5741  137.2169  158.2805 C.ar    1  UNL1        0.0241
     28 C         141.5343  137.6299  157.2813 C.ar    1  UNL1        0.0033
     29 C         141.2663  136.7727  156.0799 C.ar    1  UNL1        0.0207
     30 C         142.0380  135.5026  155.8777 C.ar    1  UNL1        0.0994
     31 N         141.7699  134.6454  154.6762 N.ar    1  UNL1       -0.2839
     32 C         141.9863  135.0402  153.2454 C.ar    1  UNL1        0.1826
     33 N         141.5885  133.8817  152.3796 N.ar    1  UNL1       -0.2280
     34 C         141.1263  132.7709  153.2753 C.ar    1  UNL1        0.0786
     35 C         140.6377  131.4245  152.8298 C.3     1  UNL1        0.0538
     36 C         141.2384  133.2428  154.6947 C.ar    1  UNL1        0.0963
     37 C         144.5354  133.1652  157.8371 C.3     1  UNL1        0.2525
     38 O         143.8495  133.8193  156.6745 O.3     1  UNL1       -0.4700
@<TRIPOS>BOND
     1    37    38    1
     2    38    25    1
     3    25    26   ar
     4    26    27   ar
     5    27     1    1
     6     1     2   ar
     7     2     3   ar
     8     3     6    1
     9     6     7    1
    10     7     8    1
    11     9     8    1
    12     9    10    1
    13    10    11    1
    14    11    12    1
    15    12    13    1
    16    14    13    1
    17    14    15    1
    18    15    18    1
    19    18    19    1
    20    19    20   ar
    21    20    21   ar
    22    21    22   ar
    23    22    23   ar
    24    23    24   ar
    25    15    16   am
    26    16    17    2
    27     3     4   ar
    28     4     5   ar
    29    27    28   ar
    30    28    29   ar
    31    29    30   ar
    32    30    31    1
    33    31    32   ar
    34    32    33   ar
    35    33    34   ar
    36    34    35    1
    37    34    36   ar
    38    30    25   ar
    39    36    31   ar
    40     5     1   ar
    41    16     6    1
    42    14     9    1
    43    24    19   ar
@<TRIPOS>MOLECULE
*****
 38 43 0 0 0
SMALL
GASTEIGER

@<TRIPOS>ATOM
      1 C         142.9227  137.4261  157.6768 C.ar    1  UNL1        0.1233
      2 C         142.7657  137.7035  159.1425 C.ar    1  UNL1        0.1180
      3 N         143.0971  139.1472  159.3792 N.ar    1  UNL1       -0.2233
      4 N         143.4589  139.7620  158.0597 N.ar    1  UNL1       -0.0634
      5 N         143.3512  138.6983  157.0075 N.ar    1  UNL1       -0.1287
      6 C         143.0712  139.8522  160.7029 C.3     1  UNL1        0.1827
      7 C         144.4039  140.2932  161.2316 C.3     1  UNL1        0.0339
      8 C         144.7105  141.0139  162.5108 C.3     1  UNL1        0.0041
      9 C         143.7603  141.4716  163.5774 C.3     1  UNL1        0.0183
     10 C         144.4837  142.1572  164.6984 C.3     1  UNL1        0.0016
     11 C         143.7155  142.6928  165.8701 C.3     1  UNL1        0.0001
     12 C         142.2239  142.5429  165.9208 C.3     1  UNL1        0.0017
     13 C         141.5005  141.8573  164.7998 C.3     1  UNL1        0.0198
     14 C         142.2687  141.3217  163.6281 C.3     1  UNL1        0.0756
     15 N         141.3590  140.6770  162.6247 N.am    1  UNL1       -0.2755
     16 C         141.7160  140.0230  161.3229 C.2     1  UNL1        0.2483
     17 O         140.5660  139.4662  160.5372 O.2     1  UNL1       -0.2728
     18 C         139.8990  140.6878  162.9687 C.3     1  UNL1        0.1201
     19 C         139.3633  139.7347  163.9958 C.ar    1  UNL1       -0.0023
     20 C         138.4744  140.2378  165.0942 C.ar    1  UNL1       -0.0026
     21 C         137.9387  139.2848  166.1213 C.ar    1  UNL1       -0.0003
     22 C         138.2919  137.8287  166.0499 C.ar    1  UNL1       -0.0000
     23 C         139.1809  137.3257  164.9514 C.ar    1  UNL1       -0.0003
     24 C         139.7166  138.2786  163.9243 C.ar    1  UNL1       -0.0026
     25 C         143.0805  133.5420  156.8776 C.ar    1  UNL1        0.1547
     26 C         143.3115  134.8601  157.5552 C.ar    1  UNL1        0.0400
     27 C         142.6918  136.1079  156.9992 C.ar    1  UNL1        0.0241
     28 C         141.8411  136.0375  155.7658 C.ar    1  UNL1        0.0033
     29 C         141.6102  134.7193  155.0883 C.ar    1  UNL1        0.0207
     30 C         142.2299  133.4716  155.6442 C.ar    1  UNL1        0.0994
     31 N         141.9989  132.1534  154.9666 N.ar    1  UNL1       -0.2839
     32 C         143.0110  131.3798  154.1745 C.ar    1  UNL1        0.1826
     33 N         142.3529  130.1258  153.6806 N.ar    1  UNL1       -0.2280
     34 C         140.9341  130.1242  154.1673 C.ar    1  UNL1        0.0786
     35 C         139.9132  129.0568  153.9052 C.3     1  UNL1        0.0538
     36 C         140.7153  131.3773  154.9621 C.ar    1  UNL1        0.0963
     37 C         145.1533  132.2800  157.8055 C.3     1  UNL1        0.2525
     38 O         143.7002  132.2942  157.4336 O.3     1  UNL1       -0.4700
@<TRIPOS>BOND
     1    37    38    1
     2    38    25    1
     3    25    26   ar
     4    26    27   ar
     5    27     1    1
     6     1     2   ar
     7     2     3   ar
     8     3     6    1
     9     6     7    1
    10     7     8    1
    11     9     8    1
    12     9    10    1
    13    10    11    1
    14    11    12    1
    15    12    13    1
    16    14    13    1
    17    14    15    1
    18    15    18    1
    19    18    19    1
    20    19    20   ar
    21    20    21   ar
    22    21    22   ar
    23    22    23   ar
    24    23    24   ar
    25    15    16   am
    26    16    17    2
    27     3     4   ar
    28     4     5   ar
    29    27    28   ar
    30    28    29   ar
    31    29    30   ar
    32    30    31    1
    33    31    32   ar
    34    32    33   ar
    35    33    34   ar
    36    34    35    1
    37    34    36   ar
    38    30    25   ar
    39    36    31   ar
    40     5     1   ar
    41    16     6    1
    42    14     9    1
    43    24    19   ar
@<TRIPOS>MOLECULE
*****
 38 43 0 0 0
SMALL
GASTEIGER

@<TRIPOS>ATOM
      1 C         143.4769  139.6343  160.3885 C.ar    1  UNL1        0.1233
      2 C         143.1984  140.2270  161.7379 C.ar    1  UNL1        0.1180
      3 N         142.7789  139.1163  162.6546 N.ar    1  UNL1       -0.2233
      4 N         142.7982  137.8370  161.8716 N.ar    1  UNL1       -0.0634
      5 N         143.2296  138.1571  160.4711 N.ar    1  UNL1       -0.1287
      6 C         142.4057  139.2596  164.1003 C.3     1  UNL1        0.1827
      7 C         143.4453  138.8186  165.0876 C.3     1  UNL1        0.0339
      8 C         143.3781  138.8341  166.5860 C.3     1  UNL1        0.0041
      9 C         142.2548  139.2944  167.4673 C.3     1  UNL1        0.0183
     10 C         142.5984  139.1392  168.9191 C.3     1  UNL1        0.0016
     11 C         141.6084  139.5426  169.9713 C.3     1  UNL1        0.0001
     12 C         140.2749  140.1012  169.5716 C.3     1  UNL1        0.0017
     13 C         139.9313  140.2563  168.1198 C.3     1  UNL1        0.0198
     14 C         140.9213  139.8529  167.0676 C.3     1  UNL1        0.0756
     15 N         140.3817  140.0891  165.6881 N.am    1  UNL1       -0.2755
     16 C         141.0422  139.8251  164.3675 C.2     1  UNL1        0.2483
     17 O         140.2324  140.1723  163.1537 O.2     1  UNL1       -0.2728
     18 C         138.9985  140.6655  165.6202 C.3     1  UNL1        0.1201
     19 C         138.7820  142.0286  165.0326 C.ar    1  UNL1       -0.0023
     20 C         139.6114  143.1874  165.5007 C.ar    1  UNL1       -0.0026
     21 C         139.3949  144.5505  164.9132 C.ar    1  UNL1       -0.0003
     22 C         138.3490  144.7547  163.8575 C.ar    1  UNL1       -0.0000
     23 C         137.5196  143.5958  163.3894 C.ar    1  UNL1       -0.0003
     24 C         137.7361  142.2327  163.9769 C.ar    1  UNL1       -0.0026
     25 C         144.1987  140.5330  156.5910 C.ar    1  UNL1        0.1547
     26 C         143.7514  139.7807  157.8091 C.ar    1  UNL1        0.0400
     27 C         143.9242  140.3866  159.1703 C.ar    1  UNL1        0.0241
     28 C         144.5444  141.7448  159.3134 C.ar    1  UNL1        0.0033
     29 C         144.9917  142.4972  158.0952 C.ar    1  UNL1        0.0207
     30 C         144.8189  141.8912  156.7341 C.ar    1  UNL1        0.0994
     31 N         145.2662  142.6436  155.5159 N.ar    1  UNL1       -0.2839
     32 C         144.3713  143.2504  154.4763 C.ar    1  UNL1        0.1826
     33 N         145.2390  143.9031  153.4414 N.ar    1  UNL1       -0.2280
     34 C         146.6703  143.6997  153.8414 C.ar    1  UNL1        0.0786
     35 C         147.8735  144.1888  153.0911 C.3     1  UNL1        0.0538
     36 C         146.6871  142.9213  155.1235 C.ar    1  UNL1        0.0963
     37 C         145.1378  139.1276  154.6180 C.3     1  UNL1        0.2525
     38 O         144.0258  139.9271  155.2297 O.3     1  UNL1       -0.4700
@<TRIPOS>BOND
     1    37    38    1
     2    38    25    1
     3    25    26   ar
     4    26    27   ar
     5    27     1    1
     6     1     2   ar
     7     2     3   ar
     8     3     6    1
     9     6     7    1
    10     7     8    1
    11     9     8    1
    12     9    10    1
    13    10    11    1
    14    11    12    1
    15    12    13    1
    16    14    13    1
    17    14    15    1
    18    15    18    1
    19    18    19    1
    20    19    20   ar
    21    20    21   ar
    22    21    22   ar
    23    22    23   ar
    24    23    24   ar
    25    15    16   am
    26    16    17    2
    27     3     4   ar
    28     4     5   ar
    29    27    28   ar
    30    28    29   ar
    31    29    30   ar
    32    30    31    1
    33    31    32   ar
    34    32    33   ar
    35    33    34   ar
    36    34    35    1
    37    34    36   ar
    38    30    25   ar
    39    36    31   ar
    40     5     1   ar
    41    16     6    1
    42    14     9    1
    43    24    19   ar
@<TRIPOS>MOLECULE
*****
 38 43 0 0 0
SMALL
GASTEIGER

@<TRIPOS>ATOM
      1 C         141.4670  139.0686  157.4817 C.ar    1  UNL1        0.1233
      2 C         140.7755  139.3567  158.7813 C.ar    1  UNL1        0.1180
      3 N         141.0260  140.7937  159.1311 N.ar    1  UNL1       -0.2233
      4 N         141.8724  141.3937  158.0478 N.ar    1  UNL1       -0.0634
      5 N         142.1450  140.3276  157.0284 N.ar    1  UNL1       -0.1287
      6 C         140.5191  141.5056  160.3502 C.3     1  UNL1        0.1827
      7 C         139.1063  142.0037  160.2727 C.3     1  UNL1        0.0339
      8 C         138.3176  142.7445  161.3115 C.3     1  UNL1        0.0041
      9 C         138.7467  143.1702  162.6844 C.3     1  UNL1        0.0183
     10 C         137.6458  143.8917  163.4036 C.3     1  UNL1        0.0016
     11 C         137.8688  144.4032  164.7959 C.3     1  UNL1        0.0001
     12 C         139.1927  144.1932  165.4690 C.3     1  UNL1        0.0017
     13 C         140.2937  143.4716  164.7498 C.3     1  UNL1        0.0198
     14 C         140.0707  142.9601  163.3575 C.3     1  UNL1        0.0756
     15 N         141.2924  142.2725  162.8240 N.am    1  UNL1       -0.2755
     16 C         141.4920  141.6252  161.4857 C.2     1  UNL1        0.2483
     17 O         142.8431  141.0171  161.2518 O.2     1  UNL1       -0.2728
     18 C         142.4703  142.2262  163.7515 C.3     1  UNL1        0.1201
     19 C         142.8153  140.9513  164.4628 C.ar    1  UNL1       -0.0023
     20 C         144.2043  140.3929  164.3698 C.ar    1  UNL1       -0.0026
     21 C         144.5493  139.1181  165.0810 C.ar    1  UNL1       -0.0003
     22 C         143.5052  138.4017  165.8852 C.ar    1  UNL1       -0.0000
     23 C         142.1161  138.9602  165.9782 C.ar    1  UNL1       -0.0003
     24 C         141.7711  140.2350  165.2669 C.ar    1  UNL1       -0.0026
     25 C         142.6024  135.4597  156.2833 C.ar    1  UNL1        0.1547
     26 C         142.5909  136.7756  157.0032 C.ar    1  UNL1        0.0400
     27 C         141.4786  137.7527  156.7619 C.ar    1  UNL1        0.0241
     28 C         140.3779  137.4138  155.8009 C.ar    1  UNL1        0.0033
     29 C         140.3895  136.0979  155.0810 C.ar    1  UNL1        0.0207
     30 C         141.5017  135.1209  155.3223 C.ar    1  UNL1        0.0994
     31 N         141.5133  133.8049  154.6024 N.ar    1  UNL1       -0.2839
     32 C         141.8979  133.5873  153.1690 C.ar    1  UNL1        0.1826
     33 N         141.7645  132.1235  152.8703 N.ar    1  UNL1       -0.2280
     34 C         141.2975  131.4362  154.1191 C.ar    1  UNL1        0.0786
     35 C         141.0323  129.9677  154.2709 C.3     1  UNL1        0.0538
     36 C         141.1422  132.4754  155.1896 C.ar    1  UNL1        0.0963
     37 C         143.8521  133.8180  157.8622 C.3     1  UNL1        0.2525
     38 O         143.7147  134.4826  156.5246 O.3     1  UNL1       -0.4700
@<TRIPOS>BOND
     1    37    38    1
     2    38    25    1
     3    25    26   ar
     4    26    27   ar
     5    27     1    1
     6     1     2   ar
     7     2     3   ar
     8     3     6    1
     9     6     7    1
    10     7     8    1
    11     9     8    1
    12     9    10    1
    13    10    11    1
    14    11    12    1
    15    12    13    1
    16    14    13    1
    17    14    15    1
    18    15    18    1
    19    18    19    1
    20    19    20   ar
    21    20    21   ar
    22    21    22   ar
    23    22    23   ar
    24    23    24   ar
    25    15    16   am
    26    16    17    2
    27     3     4   ar
    28     4     5   ar
    29    27    28   ar
    30    28    29   ar
    31    29    30   ar
    32    30    31    1
    33    31    32   ar
    34    32    33   ar
    35    33    34   ar
    36    34    35    1
    37    34    36   ar
    38    30    25   ar
    39    36    31   ar
    40     5     1   ar
    41    16     6    1
    42    14     9    1
    43    24    19   ar
@<TRIPOS>MOLECULE
*****
 38 43 0 0 0
SMALL
GASTEIGER

@<TRIPOS>ATOM
      1 C         143.1099  136.9138  156.6922 C.ar    1  UNL1        0.1233
      2 C         142.4874  137.7282  157.7872 C.ar    1  UNL1        0.1180
      3 N         143.0875  139.1022  157.7416 N.ar    1  UNL1       -0.2233
      4 N         144.0810  139.1369  156.6183 N.ar    1  UNL1       -0.0634
      5 N         144.0949  137.7844  155.9697 N.ar    1  UNL1       -0.1287
      6 C         142.7530  140.2414  158.6583 C.3     1  UNL1        0.1827
      7 C         141.7678  141.2386  158.1243 C.3     1  UNL1        0.0339
      8 C         141.2343  142.4735  158.7880 C.3     1  UNL1        0.0041
      9 C         141.5539  143.0161  160.1494 C.3     1  UNL1        0.0183
     10 C         140.7980  144.2818  160.4262 C.3     1  UNL1        0.0016
     11 C         140.9744  144.9892  161.7370 C.3     1  UNL1        0.0001
     12 C         141.9067  144.4310  162.7711 C.3     1  UNL1        0.0017
     13 C         142.6626  143.1653  162.4943 C.3     1  UNL1        0.0198
     14 C         142.4862  142.4579  161.1834 C.3     1  UNL1        0.0756
     15 N         143.3290  141.2191  161.1114 N.am    1  UNL1       -0.2755
     16 C         143.4478  140.2327  159.9876 C.2     1  UNL1        0.2483
     17 O         144.3852  139.0860  160.2245 O.2     1  UNL1       -0.2728
     18 C         144.1634  140.9284  162.3235 C.3     1  UNL1        0.1201
     19 C         143.6379  140.0206  163.3958 C.ar    1  UNL1       -0.0023
     20 C         142.2111  139.5594  163.3551 C.ar    1  UNL1       -0.0026
     21 C         141.6855  138.6517  164.4274 C.ar    1  UNL1       -0.0003
     22 C         142.5866  138.2051  165.5403 C.ar    1  UNL1       -0.0000
     23 C         144.0134  138.6663  165.5809 C.ar    1  UNL1       -0.0003
     24 C         144.5391  139.5741  164.5087 C.ar    1  UNL1       -0.0026
     25 C         143.1762  132.9477  156.8165 C.ar    1  UNL1        0.1547
     26 C         143.4845  134.3810  157.1335 C.ar    1  UNL1        0.0400
     27 C         142.8016  135.4804  156.3753 C.ar    1  UNL1        0.0241
     28 C         141.8104  135.1465  155.3001 C.ar    1  UNL1        0.0033
     29 C         141.5021  133.7132  154.9831 C.ar    1  UNL1        0.0207
     30 C         142.1850  132.6138  155.7413 C.ar    1  UNL1        0.0994
     31 N         141.8766  131.1804  155.4243 N.ar    1  UNL1       -0.2839
     32 C         142.8456  130.0368  155.4808 C.ar    1  UNL1        0.1826
     33 N         142.1130  128.7887  155.0866 N.ar    1  UNL1       -0.2280
     34 C         140.6913  129.1609  154.7865 C.ar    1  UNL1        0.0786
     35 C         139.6061  128.2201  154.3537 C.3     1  UNL1        0.0538
     36 C         140.5452  130.6391  154.9952 C.ar    1  UNL1        0.0963
     37 C         145.3139  131.9670  157.9203 C.3     1  UNL1        0.2525
     38 O         143.8591  131.8483  157.5747 O.3     1  UNL1       -0.4700
@<TRIPOS>BOND
     1    37    38    1
     2    38    25    1
     3    25    26   ar
     4    26    27   ar
     5    27     1    1
     6     1     2   ar
     7     2     3   ar
     8     3     6    1
     9     6     7    1
    10     7     8    1
    11     9     8    1
    12     9    10    1
    13    10    11    1
    14    11    12    1
    15    12    13    1
    16    14    13    1
    17    14    15    1
    18    15    18    1
    19    18    19    1
    20    19    20   ar
    21    20    21   ar
    22    21    22   ar
    23    22    23   ar
    24    23    24   ar
    25    15    16   am
    26    16    17    2
    27     3     4   ar
    28     4     5   ar
    29    27    28   ar
    30    28    29   ar
    31    29    30   ar
    32    30    31    1
    33    31    32   ar
    34    32    33   ar
    35    33    34   ar
    36    34    35    1
    37    34    36   ar
    38    30    25   ar
    39    36    31   ar
    40     5     1   ar
    41    16     6    1
    42    14     9    1
    43    24    19   ar
@<TRIPOS>MOLECULE
*****
 38 43 0 0 0
SMALL
GASTEIGER

@<TRIPOS>ATOM
      1 C         142.4604  138.3291  160.5073 C.ar    1  UNL1        0.1233
      2 C         141.6809  138.6469  161.7488 C.ar    1  UNL1        0.1180
      3 N         142.6443  138.7144  162.8965 N.ar    1  UNL1       -0.2233
      4 N         144.0192  138.4383  162.3643 N.ar    1  UNL1       -0.0634
      5 N         143.9056  138.2001  160.8877 N.ar    1  UNL1       -0.1287
      6 C         142.2942  139.0067  164.3255 C.3     1  UNL1        0.1827
      7 C         143.3040  138.5704  165.3453 C.3     1  UNL1        0.0339
      8 C         143.2496  138.7163  166.8371 C.3     1  UNL1        0.0041
      9 C         142.1720  139.3346  167.6778 C.3     1  UNL1        0.0183
     10 C         142.5135  139.2752  169.1371 C.3     1  UNL1        0.0016
     11 C         141.5656  139.8408  170.1528 C.3     1  UNL1        0.0001
     12 C         140.2763  140.4658  169.7091 C.3     1  UNL1        0.0017
     13 C         139.9347  140.5252  168.2497 C.3     1  UNL1        0.0198
     14 C         140.8826  139.9596  167.2341 C.3     1  UNL1        0.0756
     15 N         140.3524  140.1207  165.8401 N.am    1  UNL1       -0.2755
     16 C         140.9806  139.6967  164.5457 C.2     1  UNL1        0.2483
     17 O         140.1908  140.0031  163.3079 O.2     1  UNL1       -0.2728
     18 C         139.0175  140.7951  165.7255 C.3     1  UNL1        0.1201
     19 C         138.9090  142.1361  165.0622 C.ar    1  UNL1       -0.0023
     20 C         137.7686  142.4220  164.1308 C.ar    1  UNL1       -0.0026
     21 C         137.6601  143.7630  163.4674 C.ar    1  UNL1       -0.0003
     22 C         138.6921  144.8180  163.7356 C.ar    1  UNL1       -0.0000
     23 C         139.8325  144.5321  164.6671 C.ar    1  UNL1       -0.0003
     24 C         139.9410  143.1911  165.3304 C.ar    1  UNL1       -0.0026
     25 C         140.0278  138.6645  157.3896 C.ar    1  UNL1        0.1547
     26 C         140.5940  138.8252  158.7693 C.ar    1  UNL1        0.0400
     27 C         141.8941  138.1684  159.1276 C.ar    1  UNL1        0.0241
     28 C         142.6279  137.3508  158.1063 C.ar    1  UNL1        0.0033
     29 C         142.0616  137.1901  156.7266 C.ar    1  UNL1        0.0207
     30 C         140.7616  137.8469  156.3683 C.ar    1  UNL1        0.0994
     31 N         140.1953  137.6862  154.9885 N.ar    1  UNL1       -0.2839
     32 C         140.8932  138.0232  153.7043 C.ar    1  UNL1        0.1826
     33 N         139.9609  137.7055  152.5730 N.ar    1  UNL1       -0.2280
     34 C         138.6869  137.1722  153.1580 C.ar    1  UNL1        0.0786
     35 C         137.4799  136.7286  152.3857 C.3     1  UNL1        0.0538
     36 C         138.8317  137.1602  154.6509 C.ar    1  UNL1        0.0963
     37 C         138.2826  140.5524  157.7635 C.3     1  UNL1        0.2525
     38 O         138.7277  139.3213  157.0313 O.3     1  UNL1       -0.4700
@<TRIPOS>BOND
     1    37    38    1
     2    38    25    1
     3    25    26   ar
     4    26    27   ar
     5    27     1    1
     6     1     2   ar
     7     2     3   ar
     8     3     6    1
     9     6     7    1
    10     7     8    1
    11     9     8    1
    12     9    10    1
    13    10    11    1
    14    11    12    1
    15    12    13    1
    16    14    13    1
    17    14    15    1
    18    15    18    1
    19    18    19    1
    20    19    20   ar
    21    20    21   ar
    22    21    22   ar
    23    22    23   ar
    24    23    24   ar
    25    15    16   am
    26    16    17    2
    27     3     4   ar
    28     4     5   ar
    29    27    28   ar
    30    28    29   ar
    31    29    30   ar
    32    30    31    1
    33    31    32   ar
    34    32    33   ar
    35    33    34   ar
    36    34    35    1
    37    34    36   ar
    38    30    25   ar
    39    36    31   ar
    40     5     1   ar
    41    16     6    1
    42    14     9    1
    43    24    19   ar
@<TRIPOS>MOLECULE
*****
 38 43 0 0 0
SMALL
GASTEIGER

@<TRIPOS>ATOM
      1 C         142.3240  138.8535  160.9058 C.ar    1  UNL1        0.1233
      2 C         141.3273  138.3625  159.8981 C.ar    1  UNL1        0.1180
      3 N         142.0046  138.3162  158.5606 N.ar    1  UNL1       -0.2233
      4 N         143.4201  138.7786  158.7416 N.ar    1  UNL1       -0.0634
      5 N         143.6175  139.1107  160.1910 N.ar    1  UNL1       -0.1287
      6 C         141.3768  137.8835  157.2688 C.3     1  UNL1        0.1827
      7 C         140.0615  138.5242  156.9378 C.3     1  UNL1        0.0339
      8 C         139.1919  138.3068  155.7350 C.3     1  UNL1        0.0041
      9 C         139.4228  137.3953  154.5663 C.3     1  UNL1        0.0183
     10 C         138.3003  137.4803  153.5750 C.3     1  UNL1        0.0016
     11 C         138.3354  136.6458  152.3290 C.3     1  UNL1        0.0001
     12 C         139.4930  135.7264  152.0744 C.3     1  UNL1        0.0017
     13 C         140.6154  135.6415  153.0658 C.3     1  UNL1        0.0198
     14 C         140.5803  136.4759  154.3117 C.3     1  UNL1        0.0756
     15 N         141.7929  136.2410  155.1630 N.am    1  UNL1       -0.2755
     16 C         142.1474  136.8674  156.4790 C.2     1  UNL1        0.2483
     17 O         143.4438  136.4184  157.0853 O.2     1  UNL1       -0.2728
     18 C         142.7817  135.2483  154.6273 C.3     1  UNL1        0.1201
     19 C         142.7974  133.8449  155.1567 C.ar    1  UNL1       -0.0023
     20 C         144.0035  133.3322  155.8864 C.ar    1  UNL1       -0.0026
     21 C         144.0193  131.9288  156.4158 C.ar    1  UNL1       -0.0003
     22 C         142.8291  131.0382  156.2155 C.ar    1  UNL1       -0.0000
     23 C         141.6230  131.5509  155.4857 C.ar    1  UNL1       -0.0003
     24 C         141.6072  132.9543  154.9563 C.ar    1  UNL1       -0.0026
     25 C         141.8643  140.6303  164.4245 C.ar    1  UNL1        0.1547
     26 C         142.1167  140.4315  162.9594 C.ar    1  UNL1        0.0400
     27 C         142.0716  139.0524  162.3710 C.ar    1  UNL1        0.0241
     28 C         141.7742  137.8722  163.2477 C.ar    1  UNL1        0.0033
     29 C         141.5218  138.0711  164.7129 C.ar    1  UNL1        0.0207
     30 C         141.5669  139.4501  165.3013 C.ar    1  UNL1        0.0994
     31 N         141.3144  139.6490  166.7665 N.ar    1  UNL1       -0.2839
     32 C         142.3311  139.5198  167.8619 C.ar    1  UNL1        0.1826
     33 N         141.6460  139.8029  169.1658 N.ar    1  UNL1       -0.2280
     34 C         140.2060  140.1070  168.8765 C.ar    1  UNL1        0.0786
     35 C         139.1553  140.4466  169.8918 C.3     1  UNL1        0.0538
     36 C         140.0010  140.0119  167.3936 C.ar    1  UNL1        0.0963
     37 C         143.1785  142.5217  165.6267 C.3     1  UNL1        0.2525
     38 O         141.9094  142.0093  165.0129 O.3     1  UNL1       -0.4700
@<TRIPOS>BOND
     1    37    38    1
     2    38    25    1
     3    25    26   ar
     4    26    27   ar
     5    27     1    1
     6     1     2   ar
     7     2     3   ar
     8     3     6    1
     9     6     7    1
    10     7     8    1
    11     9     8    1
    12     9    10    1
    13    10    11    1
    14    11    12    1
    15    12    13    1
    16    14    13    1
    17    14    15    1
    18    15    18    1
    19    18    19    1
    20    19    20   ar
    21    20    21   ar
    22    21    22   ar
    23    22    23   ar
    24    23    24   ar
    25    15    16   am
    26    16    17    2
    27     3     4   ar
    28     4     5   ar
    29    27    28   ar
    30    28    29   ar
    31    29    30   ar
    32    30    31    1
    33    31    32   ar
    34    32    33   ar
    35    33    34   ar
    36    34    35    1
    37    34    36   ar
    38    30    25   ar
    39    36    31   ar
    40     5     1   ar
    41    16     6    1
    42    14     9    1
    43    24    19   ar
@<TRIPOS>MOLECULE
*****
 38 43 0 0 0
SMALL
GASTEIGER

@<TRIPOS>ATOM
      1 C         142.4307  137.0705  157.3455 C.ar    1  UNL1        0.1233
      2 C         142.6843  137.4039  158.7858 C.ar    1  UNL1        0.1180
      3 N         142.5196  138.8852  158.9548 N.ar    1  UNL1       -0.2233
      4 N         142.1643  139.4674  157.6188 N.ar    1  UNL1       -0.0634
      5 N         142.1093  138.3459  156.6242 N.ar    1  UNL1       -0.1287
      6 C         142.6818  139.6501  160.2349 C.3     1  UNL1        0.1827
      7 C         144.0879  140.0329  160.5905 C.3     1  UNL1        0.0339
      8 C         144.5758  140.7912  161.7893 C.3     1  UNL1        0.0041
      9 C         143.7784  141.3539  162.9283 C.3     1  UNL1        0.0183
     10 C         144.6600  142.0446  163.9261 C.3     1  UNL1        0.0016
     11 C         144.0593  142.6786  165.1455 C.3     1  UNL1        0.0001
     12 C         142.5768  142.6220  165.3672 C.3     1  UNL1        0.0017
     13 C         141.6951  141.9313  164.3694 C.3     1  UNL1        0.0198
     14 C         142.2959  141.2973  163.1500 C.3     1  UNL1        0.0756
     15 N         141.2448  140.6640  162.2873 N.am    1  UNL1       -0.2755
     16 C         141.4165  139.9309  160.9900 C.2     1  UNL1        0.2483
     17 O         140.1564  139.4097  160.3652 O.2     1  UNL1       -0.2728
     18 C         139.8356  140.7790  162.7883 C.3     1  UNL1        0.1201
     19 C         139.3373  139.8412  163.8478 C.ar    1  UNL1       -0.0023
     20 C         138.5021  140.3635  164.9790 C.ar    1  UNL1       -0.0026
     21 C         138.0038  139.4258  166.0385 C.ar    1  UNL1       -0.0003
     22 C         138.3407  137.9659  165.9667 C.ar    1  UNL1       -0.0000
     23 C         139.1760  137.4437  164.8355 C.ar    1  UNL1       -0.0003
     24 C         139.6743  138.3813  163.7760 C.ar    1  UNL1       -0.0026
     25 C         141.7974  134.0467  154.8545 C.ar    1  UNL1        0.1547
     26 C         141.7397  135.4150  155.4661 C.ar    1  UNL1        0.0400
     27 C         142.4884  135.7021  156.7338 C.ar    1  UNL1        0.0241
     28 C         143.2947  134.6208  157.3899 C.ar    1  UNL1        0.0033
     29 C         143.3524  133.2524  156.7782 C.ar    1  UNL1        0.0207
     30 C         142.6038  132.9653  155.5106 C.ar    1  UNL1        0.0994
     31 N         142.6615  131.5968  154.8990 N.ar    1  UNL1       -0.2839
     32 C         141.9446  130.3772  155.3977 C.ar    1  UNL1        0.1826
     33 N         142.2863  129.2345  154.4882 N.ar    1  UNL1       -0.2280
     34 C         143.2144  129.7477  153.4274 C.ar    1  UNL1        0.0786
     35 C         143.8066  128.9423  152.3091 C.3     1  UNL1        0.0538
     36 C         143.4462  131.2077  153.6813 C.ar    1  UNL1        0.0963
     37 C         141.4200  134.4703  152.3192 C.3     1  UNL1        0.2525
     38 O         141.0487  133.7596  153.5868 O.3     1  UNL1       -0.4700
@<TRIPOS>BOND
     1    37    38    1
     2    38    25    1
     3    25    26   ar
     4    26    27   ar
     5    27     1    1
     6     1     2   ar
     7     2     3   ar
     8     3     6    1
     9     6     7    1
    10     7     8    1
    11     9     8    1
    12     9    10    1
    13    10    11    1
    14    11    12    1
    15    12    13    1
    16    14    13    1
    17    14    15    1
    18    15    18    1
    19    18    19    1
    20    19    20   ar
    21    20    21   ar
    22    21    22   ar
    23    22    23   ar
    24    23    24   ar
    25    15    16   am
    26    16    17    2
    27     3     4   ar
    28     4     5   ar
    29    27    28   ar
    30    28    29   ar
    31    29    30   ar
    32    30    31    1
    33    31    32   ar
    34    32    33   ar
    35    33    34   ar
    36    34    35    1
    37    34    36   ar
    38    30    25   ar
    39    36    31   ar
    40     5     1   ar
    41    16     6    1
    42    14     9    1
    43    24    19   ar
@<TRIPOS>MOLECULE
*****
 38 43 0 0 0
SMALL
GASTEIGER

@<TRIPOS>ATOM
      1 C         142.3404  138.6058  160.9240 C.ar    1  UNL1        0.1233
      2 C         142.4496  139.6435  162.0016 C.ar    1  UNL1        0.1180
      3 N         141.9739  139.0304  163.2854 N.ar    1  UNL1       -0.2233
      4 N         141.5708  137.6139  163.0011 N.ar    1  UNL1       -0.0634
      5 N         141.7973  137.3514  161.5417 N.ar    1  UNL1       -0.1287
      6 C         141.9122  139.7139  164.6192 C.3     1  UNL1        0.1827
      7 C         142.8076  139.1492  165.6819 C.3     1  UNL1        0.0339
      8 C         142.9751  139.6029  167.1018 C.3     1  UNL1        0.0041
      9 C         142.2888  140.7333  167.8097 C.3     1  UNL1        0.0183
     10 C         142.7471  140.8473  169.2334 C.3     1  UNL1        0.0016
     11 C         142.1819  141.9172  170.1198 C.3     1  UNL1        0.0001
     12 C         141.1583  142.8731  169.5826 C.3     1  UNL1        0.0017
     13 C         140.7000  142.7591  168.1589 C.3     1  UNL1        0.0198
     14 C         141.2652  141.6893  167.2724 C.3     1  UNL1        0.0756
     15 N         140.6754  141.7508  165.8946 N.am    1  UNL1       -0.2755
     16 C         140.9632  140.8718  164.7138 C.2     1  UNL1        0.2483
     17 O         140.2015  141.1930  163.4622 O.2     1  UNL1       -0.2728
     18 C         139.6638  142.8349  165.6677 C.3     1  UNL1        0.1201
     19 C         139.8828  143.8507  164.5858 C.ar    1  UNL1       -0.0023
     20 C         138.7283  144.3150  163.7483 C.ar    1  UNL1       -0.0026
     21 C         138.9472  145.3307  162.6664 C.ar    1  UNL1       -0.0003
     22 C         140.3206  145.8821  162.4222 C.ar    1  UNL1       -0.0000
     23 C         141.4752  145.4177  163.2598 C.ar    1  UNL1       -0.0003
     24 C         141.2563  144.4020  164.3416 C.ar    1  UNL1       -0.0026
     25 C         142.9696  137.8233  157.0846 C.ar    1  UNL1        0.1547
     26 C         142.6005  137.6388  158.5266 C.ar    1  UNL1        0.0400
     27 C         142.7096  138.7902  159.4819 C.ar    1  UNL1        0.0241
     28 C         143.1879  140.1259  158.9950 C.ar    1  UNL1        0.0033
     29 C         143.5571  140.3103  157.5529 C.ar    1  UNL1        0.0207
     30 C         143.4479  139.1590  156.5977 C.ar    1  UNL1        0.0994
     31 N         143.8171  139.3434  155.1555 N.ar    1  UNL1       -0.2839
     32 C         142.8753  139.2833  153.9896 C.ar    1  UNL1        0.1826
     33 N         143.6691  139.5231  152.7397 N.ar    1  UNL1       -0.2280
     34 C         145.1015  139.7314  153.1330 C.ar    1  UNL1        0.0786
     35 C         146.2422  140.0031  152.1976 C.3     1  UNL1        0.0538
     36 C         145.1930  139.6204  154.6261 C.ar    1  UNL1        0.0963
     37 C         144.0913  135.9201  155.7171 C.3     1  UNL1        0.2525
     38 O         142.8605  136.6719  156.1293 O.3     1  UNL1       -0.4700
@<TRIPOS>BOND
     1    37    38    1
     2    38    25    1
     3    25    26   ar
     4    26    27   ar
     5    27     1    1
     6     1     2   ar
     7     2     3   ar
     8     3     6    1
     9     6     7    1
    10     7     8    1
    11     9     8    1
    12     9    10    1
    13    10    11    1
    14    11    12    1
    15    12    13    1
    16    14    13    1
    17    14    15    1
    18    15    18    1
    19    18    19    1
    20    19    20   ar
    21    20    21   ar
    22    21    22   ar
    23    22    23   ar
    24    23    24   ar
    25    15    16   am
    26    16    17    2
    27     3     4   ar
    28     4     5   ar
    29    27    28   ar
    30    28    29   ar
    31    29    30   ar
    32    30    31    1
    33    31    32   ar
    34    32    33   ar
    35    33    34   ar
    36    34    35    1
    37    34    36   ar
    38    30    25   ar
    39    36    31   ar
    40     5     1   ar
    41    16     6    1
    42    14     9    1
    43    24    19   ar
