@<TRIPOS>MOLECULE
*****
 36 40 0 0 0
SMALL
GASTEIGER

@<TRIPOS>ATOM
      1 N         137.8736  142.9710  163.0318 N.3     1  UNL1       -0.2723
      2 C         138.0424  142.6824  161.5696 C.3     1  UNL1        0.0735
      3 C         138.0496  141.2643  161.0808 C.3     1  UNL1        0.0331
      4 C         137.8881  140.1347  162.0544 C.3     1  UNL1        0.0570
      5 C         137.7193  140.4232  163.5167 C.3     1  UNL1        0.0331
      6 C         137.7121  141.8414  164.0054 C.3     1  UNL1        0.0735
      7 N         137.8953  138.7165  161.5657 N.3     1  UNL1       -0.2934
      8 H         137.3090  138.6896  160.7316 H       1  UNL1        0.1236
      9 C         139.1919  138.0541  161.2052 C.3     1  UNL1        0.1152
     10 C         140.3974  138.2401  162.0782 C.ar    1  UNL1        0.0765
     11 C         140.5607  137.4115  163.3179 C.ar    1  UNL1        0.0193
     12 C         141.7662  137.5975  164.1910 C.ar    1  UNL1        0.0411
     13 C         142.8084  138.6121  163.8243 C.ar    1  UNL1        0.1708
     14 C         142.6451  139.4407  162.5847 C.ar    1  UNL1        0.1682
     15 N         141.4396  139.2547  161.7116 N.ar    1  UNL1       -0.2304
     16 N         143.6873  140.4553  162.2181 N.am    1  UNL1       -0.2639
     17 C         144.8928  140.6413  163.0911 C.2     1  UNL1        0.2718
     18 O         145.9350  141.6559  162.7245 O.2     1  UNL1       -0.2707
     19 C         145.0561  139.8127  164.3308 C.3     1  UNL1        0.2898
     20 O         144.0139  138.7981  164.6974 O.3     1  UNL1       -0.4628
     21 H         143.5801  140.9991  161.4044 H       1  UNL1        0.1565
     22 C         137.8664  144.3891  163.5205 C.3     1  UNL1        0.0769
     23 C         138.8918  144.8445  164.5162 C.3     1  UNL1        0.0476
     24 C         140.8800  141.9078  167.2862 C.ar    1  UNL1        0.2250
     25 C         142.3242  141.5526  167.0913 C.ar    1  UNL1        0.0593
     26 C         143.1057  142.1762  165.9731 C.ar    1  UNL1        0.0254
     27 C         142.4430  143.1551  165.0498 C.ar    1  UNL1        0.0990
     28 N         143.2245  143.7787  163.9316 N.ar    1  UNL1       -0.2400
     29 C         142.5618  144.7576  163.0083 C.ar    1  UNL1        0.1281
     30 C         141.1175  145.1129  163.2031 C.ar    1  UNL1        0.1567
     31 F         140.4548  146.0918  162.2798 F       1  UNL1       -0.2028
     32 C         140.3360  144.4893  164.3213 C.ar    1  UNL1        0.0274
     33 C         140.9988  143.5103  165.2447 C.ar    1  UNL1        0.1002
     34 N         140.2173  142.8867  166.3629 N.ar    1  UNL1       -0.2104
     35 C         139.4059  139.9705  168.1938 C.3     1  UNL1        0.2542
     36 O         140.0986  141.2842  168.4044 O.3     1  UNL1       -0.4561
@<TRIPOS>BOND
     1    35    36    1
     2    36    24    1
     3    24    25   ar
     4    25    26   ar
     5    26    27   ar
     6    27    28   ar
     7    28    29   ar
     8    29    30   ar
     9    30    31    1
    10    30    32   ar
    11    32    23    1
    12    23    22    1
    13    22     1    1
    14     1     2    1
    15     2     3    1
    16     3     4    1
    17     4     7    1
    18     7     9    1
    19     9    10    1
    20    10    11   ar
    21    11    12   ar
    22    12    13   ar
    23    13    14   ar
    24    14    15   ar
    25    14    16    1
    26    16    17   am
    27    17    18    2
    28    17    19    1
    29    19    20    1
    30     4     5    1
    31     5     6    1
    32    32    33   ar
    33    33    34   ar
    34    34    24   ar
    35    33    27   ar
    36     6     1    1
    37    15    10   ar
    38    20    13    1
    39     7     8    1
    40    16    21    1
@<TRIPOS>MOLECULE
*****
 36 40 0 0 0
SMALL
GASTEIGER

@<TRIPOS>ATOM
      1 N         142.0603  138.0386  164.0277 N.3     1  UNL1       -0.2723
      2 C         142.9328  138.6471  165.0852 C.3     1  UNL1        0.0735
      3 C         144.0982  139.5062  164.6931 C.3     1  UNL1        0.0331
      4 C         144.3911  139.7568  163.2434 C.3     1  UNL1        0.0570
      5 C         143.5186  139.1482  162.1859 C.3     1  UNL1        0.0331
      6 C         142.3531  138.2891  162.5781 C.3     1  UNL1        0.0735
      7 N         145.5565  140.6158  162.8513 N.3     1  UNL1       -0.2934
      8 H         145.5850  140.6259  161.8317 H       1  UNL1        0.1236
      9 C         145.6189  142.0457  163.3004 C.3     1  UNL1        0.1152
     10 C         144.4076  142.9224  163.1825 C.ar    1  UNL1        0.0765
     11 C         143.7696  143.4899  164.4159 C.ar    1  UNL1        0.0193
     12 C         142.5583  144.3667  164.2980 C.ar    1  UNL1        0.0411
     13 C         141.9848  144.6759  162.9469 C.ar    1  UNL1        0.1708
     14 C         142.6227  144.1084  161.7136 C.ar    1  UNL1        0.1682
     15 N         143.8341  143.2316  161.8314 N.ar    1  UNL1       -0.2304
     16 N         142.0492  144.4176  160.3625 N.am    1  UNL1       -0.2639
     17 C         140.8379  145.2944  160.2447 C.2     1  UNL1        0.2718
     18 O         140.2644  145.6036  158.8936 O.2     1  UNL1       -0.2707
     19 C         140.1999  145.8619  161.4780 C.3     1  UNL1        0.2898
     20 O         140.7734  145.5527  162.8291 O.3     1  UNL1       -0.4628
     21 H         142.4679  144.0452  159.5531 H       1  UNL1        0.1565
     22 C         140.8949  137.1795  164.4198 C.3     1  UNL1        0.0769
     23 C         139.6169  137.8145  164.8822 C.3     1  UNL1        0.0476
     24 C         140.2724  141.9216  166.6005 C.ar    1  UNL1        0.2250
     25 C         139.7336  143.1270  165.8888 C.ar    1  UNL1        0.0593
     26 C         138.9762  142.9635  164.6044 C.ar    1  UNL1        0.0254
     27 C         138.7577  141.5945  164.0316 C.ar    1  UNL1        0.0990
     28 N         138.0004  141.4310  162.7472 N.ar    1  UNL1       -0.2400
     29 C         137.7819  140.0620  162.1745 C.ar    1  UNL1        0.1281
     30 C         138.3208  138.8564  162.8861 C.ar    1  UNL1        0.1567
     31 F         138.1023  137.4875  162.3134 F       1  UNL1       -0.2028
     32 C         139.0781  139.0200  164.1705 C.ar    1  UNL1        0.0274
     33 C         139.2966  140.3891  164.7433 C.ar    1  UNL1        0.1002
     34 N         140.0539  140.5526  166.0277 N.ar    1  UNL1       -0.2104
     35 C         142.5297  142.0873  167.8761 C.3     1  UNL1        0.2542
     36 O         141.0297  142.0851  167.8849 O.3     1  UNL1       -0.4561
@<TRIPOS>BOND
     1    35    36    1
     2    36    24    1
     3    24    25   ar
     4    25    26   ar
     5    26    27   ar
     6    27    28   ar
     7    28    29   ar
     8    29    30   ar
     9    30    31    1
    10    30    32   ar
    11    32    23    1
    12    23    22    1
    13    22     1    1
    14     1     2    1
    15     2     3    1
    16     3     4    1
    17     4     7    1
    18     7     9    1
    19     9    10    1
    20    10    11   ar
    21    11    12   ar
    22    12    13   ar
    23    13    14   ar
    24    14    15   ar
    25    14    16    1
    26    16    17   am
    27    17    18    2
    28    17    19    1
    29    19    20    1
    30     4     5    1
    31     5     6    1
    32    32    33   ar
    33    33    34   ar
    34    34    24   ar
    35    33    27   ar
    36     6     1    1
    37    15    10   ar
    38    20    13    1
    39     7     8    1
    40    16    21    1
@<TRIPOS>MOLECULE
*****
 36 40 0 0 0
SMALL
GASTEIGER

@<TRIPOS>ATOM
      1 N         141.5047  139.9520  166.2971 N.3     1  UNL1       -0.2723
      2 C         142.2198  138.8741  165.5376 C.3     1  UNL1        0.0735
      3 C         143.4626  139.2003  164.7637 C.3     1  UNL1        0.0331
      4 C         143.9903  140.6044  164.7492 C.3     1  UNL1        0.0570
      5 C         143.2752  141.6822  165.5086 C.3     1  UNL1        0.0331
      6 C         142.0323  141.3560  166.2826 C.3     1  UNL1        0.0735
      7 N         145.2331  140.9306  163.9752 N.3     1  UNL1       -0.2934
      8 H         145.2983  140.2469  163.2211 H       1  UNL1        0.1236
      9 C         145.3925  142.2837  163.3479 C.3     1  UNL1        0.1152
     10 C         144.4194  142.7459  162.3042 C.ar    1  UNL1        0.0765
     11 C         144.5341  142.2417  160.8960 C.ar    1  UNL1        0.0193
     12 C         143.5610  142.7039  159.8523 C.ar    1  UNL1        0.0411
     13 C         142.4731  143.6702  160.2167 C.ar    1  UNL1        0.1708
     14 C         142.3583  144.1743  161.6247 C.ar    1  UNL1        0.1682
     15 N         143.3315  143.7122  162.6685 N.ar    1  UNL1       -0.2304
     16 N         141.2704  145.1406  161.9890 N.am    1  UNL1       -0.2639
     17 C         140.2973  145.6027  160.9453 C.2     1  UNL1        0.2718
     18 O         139.2093  146.5690  161.3096 O.2     1  UNL1       -0.2707
     19 C         140.4120  145.0986  159.5372 C.3     1  UNL1        0.2898
     20 O         141.4999  144.1323  159.1729 O.3     1  UNL1       -0.4628
     21 H         141.1951  145.4715  162.9132 H       1  UNL1        0.1565
     22 C         140.2619  139.6258  167.0710 C.3     1  UNL1        0.0769
     23 C         138.9148  139.7978  166.4340 C.3     1  UNL1        0.0476
     24 C         138.2179  143.1528  163.5171 C.ar    1  UNL1        0.2250
     25 C         138.0340  142.8528  162.0590 C.ar    1  UNL1        0.0593
     26 C         138.0824  141.4344  161.5731 C.ar    1  UNL1        0.0254
     27 C         138.3147  140.3161  162.5454 C.ar    1  UNL1        0.0990
     28 N         138.3631  138.8978  162.0596 N.ar    1  UNL1       -0.2400
     29 C         138.5954  137.7795  163.0318 C.ar    1  UNL1        0.1281
     30 C         138.7793  138.0795  164.4900 C.ar    1  UNL1        0.1567
     31 F         139.0116  136.9611  165.4623 F       1  UNL1       -0.2028
     32 C         138.7309  139.4978  164.9759 C.ar    1  UNL1        0.0274
     33 C         138.4986  140.6161  164.0035 C.ar    1  UNL1        0.1002
     34 N         138.4502  142.0344  164.4894 N.ar    1  UNL1       -0.2104
     35 C         138.6032  144.9003  165.4006 C.3     1  UNL1        0.2542
     36 O         138.1694  144.5711  164.0029 O.3     1  UNL1       -0.4561
@<TRIPOS>BOND
     1    35    36    1
     2    36    24    1
     3    24    25   ar
     4    25    26   ar
     5    26    27   ar
     6    27    28   ar
     7    28    29   ar
     8    29    30   ar
     9    30    31    1
    10    30    32   ar
    11    32    23    1
    12    23    22    1
    13    22     1    1
    14     1     2    1
    15     2     3    1
    16     3     4    1
    17     4     7    1
    18     7     9    1
    19     9    10    1
    20    10    11   ar
    21    11    12   ar
    22    12    13   ar
    23    13    14   ar
    24    14    15   ar
    25    14    16    1
    26    16    17   am
    27    17    18    2
    28    17    19    1
    29    19    20    1
    30     4     5    1
    31     5     6    1
    32    32    33   ar
    33    33    34   ar
    34    34    24   ar
    35    33    27   ar
    36     6     1    1
    37    15    10   ar
    38    20    13    1
    39     7     8    1
    40    16    21    1
@<TRIPOS>MOLECULE
*****
 36 40 0 0 0
SMALL
GASTEIGER

@<TRIPOS>ATOM
      1 N         143.5869  142.2564  163.6580 N.3     1  UNL1       -0.2723
      2 C         143.6966  142.9646  162.3403 C.3     1  UNL1        0.0735
      3 C         142.9022  144.2124  162.0910 C.3     1  UNL1        0.0331
      4 C         141.9981  144.7519  163.1595 C.3     1  UNL1        0.0570
      5 C         141.8884  144.0436  164.4772 C.3     1  UNL1        0.0331
      6 C         142.6828  142.7959  164.7264 C.3     1  UNL1        0.0735
      7 N         141.2038  145.9996  162.9102 N.3     1  UNL1       -0.2934
      8 H         141.7502  146.5731  162.2677 H       1  UNL1        0.1236
      9 C         139.8204  145.9062  162.3378 C.3     1  UNL1        0.1152
     10 C         139.1652  144.5668  162.1744 C.ar    1  UNL1        0.0765
     11 C         138.3042  144.0142  163.2715 C.ar    1  UNL1        0.0193
     12 C         137.6490  142.6749  163.1081 C.ar    1  UNL1        0.0411
     13 C         137.8547  141.8880  161.8478 C.ar    1  UNL1        0.1708
     14 C         138.7156  142.4406  160.7507 C.ar    1  UNL1        0.1682
     15 N         139.3709  143.7800  160.9141 N.ar    1  UNL1       -0.2304
     16 N         138.9213  141.6537  159.4903 N.am    1  UNL1       -0.2639
     17 C         138.2660  140.3143  159.3270 C.2     1  UNL1        0.2718
     18 O         138.4717  139.5275  158.0666 O.2     1  UNL1       -0.2707
     19 C         137.4051  139.7618  160.4240 C.3     1  UNL1        0.2898
     20 O         137.1994  140.5486  161.6844 O.3     1  UNL1       -0.4628
     21 H         139.4863  142.0164  158.7703 H       1  UNL1        0.1565
     22 C         144.3812  141.0087  163.9073 C.3     1  UNL1        0.0769
     23 C         143.7222  139.8107  164.5244 C.3     1  UNL1        0.0476
     24 C         139.6026  139.3663  166.2795 C.ar    1  UNL1        0.2250
     25 C         138.5419  138.6216  165.5243 C.ar    1  UNL1        0.0593
     26 C         138.8545  138.0250  164.1840 C.ar    1  UNL1        0.0254
     27 C         140.2277  138.1731  163.5990 C.ar    1  UNL1        0.0990
     28 N         140.5403  137.5766  162.2587 N.ar    1  UNL1       -0.2400
     29 C         141.9134  137.7247  161.6736 C.ar    1  UNL1        0.1281
     30 C         142.9742  138.4694  162.4288 C.ar    1  UNL1        0.1567
     31 F         144.3474  138.6176  161.8438 F       1  UNL1       -0.2028
     32 C         142.6616  139.0660  163.7691 C.ar    1  UNL1        0.0274
     33 C         141.2883  138.9179  164.3542 C.ar    1  UNL1        0.1002
     34 N         140.9758  139.5144  165.6945 N.ar    1  UNL1       -0.2104
     35 C         140.3768  140.1237  168.6411 C.3     1  UNL1        0.2542
     36 O         139.2900  139.9629  167.6198 O.3     1  UNL1       -0.4561
@<TRIPOS>BOND
     1    35    36    1
     2    36    24    1
     3    24    25   ar
     4    25    26   ar
     5    26    27   ar
     6    27    28   ar
     7    28    29   ar
     8    29    30   ar
     9    30    31    1
    10    30    32   ar
    11    32    23    1
    12    23    22    1
    13    22     1    1
    14     1     2    1
    15     2     3    1
    16     3     4    1
    17     4     7    1
    18     7     9    1
    19     9    10    1
    20    10    11   ar
    21    11    12   ar
    22    12    13   ar
    23    13    14   ar
    24    14    15   ar
    25    14    16    1
    26    16    17   am
    27    17    18    2
    28    17    19    1
    29    19    20    1
    30     4     5    1
    31     5     6    1
    32    32    33   ar
    33    33    34   ar
    34    34    24   ar
    35    33    27   ar
    36     6     1    1
    37    15    10   ar
    38    20    13    1
    39     7     8    1
    40    16    21    1
@<TRIPOS>MOLECULE
*****
 36 40 0 0 0
SMALL
GASTEIGER

@<TRIPOS>ATOM
      1 N         140.9992  140.5180  166.6398 N.3     1  UNL1       -0.2723
      2 C         142.0514  139.8691  165.7902 C.3     1  UNL1        0.0735
      3 C         143.1377  140.7012  165.1758 C.3     1  UNL1        0.0331
      4 C         143.1718  142.1823  165.4109 C.3     1  UNL1        0.0570
      5 C         142.1196  142.8312  166.2605 C.3     1  UNL1        0.0331
      6 C         141.0333  141.9990  166.8749 C.3     1  UNL1        0.0735
      7 N         144.2581  143.0144  164.7964 N.3     1  UNL1       -0.2934
      8 H         144.6071  142.4948  163.9910 H       1  UNL1        0.1236
      9 C         143.9586  144.4043  164.3185 C.3     1  UNL1        0.1152
     10 C         142.9360  144.6237  163.2434 C.ar    1  UNL1        0.0765
     11 C         141.6241  145.2704  163.5767 C.ar    1  UNL1        0.0193
     12 C         140.6015  145.4897  162.5016 C.ar    1  UNL1        0.0411
     13 C         140.8905  145.0625  161.0931 C.ar    1  UNL1        0.1708
     14 C         142.2022  144.4159  160.7597 C.ar    1  UNL1        0.1682
     15 N         143.2250  144.1964  161.8348 N.ar    1  UNL1       -0.2304
     16 N         142.4912  143.9886  159.3512 N.am    1  UNL1       -0.2639
     17 C         141.4685  144.2080  158.2761 C.2     1  UNL1        0.2718
     18 O         141.7576  143.7807  156.8675 O.2     1  UNL1       -0.2707
     19 C         140.1567  144.8547  158.6094 C.3     1  UNL1        0.2898
     20 O         139.8677  145.2819  160.0179 O.3     1  UNL1       -0.4628
     21 H         143.3522  143.5642  159.1324 H       1  UNL1        0.1565
     22 C         139.9130  139.6859  167.2542 C.3     1  UNL1        0.0769
     23 C         138.5913  139.5456  166.5587 C.3     1  UNL1        0.0476
     24 C         137.8683  143.0698  163.8555 C.ar    1  UNL1        0.2250
     25 C         137.8200  142.8771  162.3687 C.ar    1  UNL1        0.0593
     26 C         138.0126  141.5096  161.7830 C.ar    1  UNL1        0.0254
     27 C         138.2536  140.3349  162.6841 C.ar    1  UNL1        0.0990
     28 N         138.4462  138.9675  162.0984 N.ar    1  UNL1       -0.2400
     29 C         138.6872  137.7928  162.9994 C.ar    1  UNL1        0.1281
     30 C         138.7356  137.9855  164.4863 C.ar    1  UNL1        0.1567
     31 F         138.9766  136.8108  165.3873 F       1  UNL1       -0.2028
     32 C         138.5430  139.3529  165.0720 C.ar    1  UNL1        0.0274
     33 C         138.3020  140.5276  164.1708 C.ar    1  UNL1        0.1002
     34 N         138.1093  141.8951  164.7565 N.ar    1  UNL1       -0.2104
     35 C         138.5415  144.8953  165.5772 C.3     1  UNL1        0.2542
     36 O         137.6757  144.4372  164.4412 O.3     1  UNL1       -0.4561
@<TRIPOS>BOND
     1    35    36    1
     2    36    24    1
     3    24    25   ar
     4    25    26   ar
     5    26    27   ar
     6    27    28   ar
     7    28    29   ar
     8    29    30   ar
     9    30    31    1
    10    30    32   ar
    11    32    23    1
    12    23    22    1
    13    22     1    1
    14     1     2    1
    15     2     3    1
    16     3     4    1
    17     4     7    1
    18     7     9    1
    19     9    10    1
    20    10    11   ar
    21    11    12   ar
    22    12    13   ar
    23    13    14   ar
    24    14    15   ar
    25    14    16    1
    26    16    17   am
    27    17    18    2
    28    17    19    1
    29    19    20    1
    30     4     5    1
    31     5     6    1
    32    32    33   ar
    33    33    34   ar
    34    34    24   ar
    35    33    27   ar
    36     6     1    1
    37    15    10   ar
    38    20    13    1
    39     7     8    1
    40    16    21    1
@<TRIPOS>MOLECULE
*****
 36 40 0 0 0
SMALL
GASTEIGER

@<TRIPOS>ATOM
      1 N         143.3324  140.3989  160.6351 N.3     1  UNL1       -0.2723
      2 C         144.1245  139.2695  161.2241 C.3     1  UNL1        0.0735
      3 C         143.4197  138.1364  161.9092 C.3     1  UNL1        0.0331
      4 C         141.9228  138.1327  162.0052 C.3     1  UNL1        0.0570
      5 C         141.1307  139.2621  161.4161 C.3     1  UNL1        0.0331
      6 C         141.8355  140.3952  160.7311 C.3     1  UNL1        0.0735
      7 N         141.2180  136.9996  162.6902 N.3     1  UNL1       -0.2934
      8 H         141.6440  136.1382  162.3484 H       1  UNL1        0.1236
      9 C         141.2128  136.9154  164.1878 C.3     1  UNL1        0.1152
     10 C         140.9240  138.1385  165.0068 C.ar    1  UNL1        0.0765
     11 C         139.5205  138.6577  165.1103 C.ar    1  UNL1        0.0193
     12 C         139.2318  139.8807  165.9292 C.ar    1  UNL1        0.0411
     13 C         140.3465  140.5847  166.6446 C.ar    1  UNL1        0.1708
     14 C         141.7500  140.0655  166.5412 C.ar    1  UNL1        0.1682
     15 N         142.0388  138.8424  165.7222 N.ar    1  UNL1       -0.2304
     16 N         142.8647  140.7695  167.2566 N.am    1  UNL1       -0.2639
     17 C         142.5760  141.9925  168.0755 C.2     1  UNL1        0.2718
     18 O         143.6907  142.6965  168.7910 O.2     1  UNL1       -0.2707
     19 C         141.1725  142.5117  168.1791 C.3     1  UNL1        0.2898
     20 O         140.0577  141.8078  167.4636 O.3     1  UNL1       -0.4628
     21 H         143.7859  140.4287  167.1887 H       1  UNL1        0.1565
     22 C         144.0372  141.5320  159.9500 C.3     1  UNL1        0.0769
     23 C         144.7546  142.5695  160.7619 C.3     1  UNL1        0.0476
     24 C         141.0833  145.1360  161.1912 C.ar    1  UNL1        0.2250
     25 C         140.5789  145.5013  162.5558 C.ar    1  UNL1        0.0593
     26 C         141.2984  145.0111  163.7773 C.ar    1  UNL1        0.0254
     27 C         142.5221  144.1556  163.6342 C.ar    1  UNL1        0.0990
     28 N         143.2415  143.6654  164.8557 N.ar    1  UNL1       -0.2400
     29 C         144.4653  142.8099  164.7127 C.ar    1  UNL1        0.1281
     30 C         144.9697  142.4446  163.3480 C.ar    1  UNL1        0.1567
     31 F         146.1934  141.5891  163.2050 F       1  UNL1       -0.2028
     32 C         144.2503  142.9348  162.1265 C.ar    1  UNL1        0.0274
     33 C         143.0264  143.7903  162.2696 C.ar    1  UNL1        0.1002
     34 N         142.3070  144.2805  161.0481 N.ar    1  UNL1       -0.2104
     35 C         140.9563  145.4025  158.6099 C.3     1  UNL1        0.2542
     36 O         140.3638  145.6262  159.9696 O.3     1  UNL1       -0.4561
@<TRIPOS>BOND
     1    35    36    1
     2    36    24    1
     3    24    25   ar
     4    25    26   ar
     5    26    27   ar
     6    27    28   ar
     7    28    29   ar
     8    29    30   ar
     9    30    31    1
    10    30    32   ar
    11    32    23    1
    12    23    22    1
    13    22     1    1
    14     1     2    1
    15     2     3    1
    16     3     4    1
    17     4     7    1
    18     7     9    1
    19     9    10    1
    20    10    11   ar
    21    11    12   ar
    22    12    13   ar
    23    13    14   ar
    24    14    15   ar
    25    14    16    1
    26    16    17   am
    27    17    18    2
    28    17    19    1
    29    19    20    1
    30     4     5    1
    31     5     6    1
    32    32    33   ar
    33    33    34   ar
    34    34    24   ar
    35    33    27   ar
    36     6     1    1
    37    15    10   ar
    38    20    13    1
    39     7     8    1
    40    16    21    1
@<TRIPOS>MOLECULE
*****
 36 40 0 0 0
SMALL
GASTEIGER

@<TRIPOS>ATOM
      1 N         140.3944  139.7015  161.1253 N.3     1  UNL1       -0.2723
      2 C         141.0865  138.4421  161.5554 C.3     1  UNL1        0.0735
      3 C         142.5400  138.4736  161.9245 C.3     1  UNL1        0.0331
      4 C         143.3015  139.7645  161.8635 C.3     1  UNL1        0.0570
      5 C         142.6095  141.0239  161.4333 C.3     1  UNL1        0.0331
      6 C         141.1559  140.9924  161.0643 C.3     1  UNL1        0.0735
      7 N         144.7550  139.7960  162.2325 N.3     1  UNL1       -0.2934
      8 H         145.2304  140.3381  161.5110 H       1  UNL1        0.1236
      9 C         145.1814  140.3653  163.5532 C.3     1  UNL1        0.1152
     10 C         144.3170  140.1782  164.7647 C.ar    1  UNL1        0.0765
     11 C         144.1625  138.8157  165.3727 C.ar    1  UNL1        0.0193
     12 C         143.2981  138.6286  166.5842 C.ar    1  UNL1        0.0411
     13 C         142.5882  139.8040  167.1878 C.ar    1  UNL1        0.1708
     14 C         142.7427  141.1666  166.5799 C.ar    1  UNL1        0.1682
     15 N         143.6071  141.3537  165.3683 N.ar    1  UNL1       -0.2304
     16 N         142.0328  142.3420  167.1835 N.am    1  UNL1       -0.2639
     17 C         141.1684  142.1549  168.3950 C.2     1  UNL1        0.2718
     18 O         140.4585  143.3304  168.9986 O.2     1  UNL1       -0.2707
     19 C         141.0139  140.7923  169.0030 C.3     1  UNL1        0.2898
     20 O         141.7238  139.6169  168.3994 O.3     1  UNL1       -0.4628
     21 H         142.1342  143.2363  166.7845 H       1  UNL1        0.1565
     22 C         138.9409  139.6700  160.7562 C.3     1  UNL1        0.0769
     23 C         137.9015  140.0495  161.7691 C.3     1  UNL1        0.0476
     24 C         138.6196  144.3106  163.0251 C.ar    1  UNL1        0.2250
     25 C         139.0246  144.6184  164.4361 C.ar    1  UNL1        0.0593
     26 C         139.1902  143.5059  165.4286 C.ar    1  UNL1        0.0254
     27 C         138.9509  142.0856  165.0099 C.ar    1  UNL1        0.0990
     28 N         139.1165  140.9731  166.0023 N.ar    1  UNL1       -0.2400
     29 C         138.8771  139.5527  165.5837 C.ar    1  UNL1        0.1281
     30 C         138.4721  139.2448  164.1725 C.ar    1  UNL1        0.1567
     31 F         138.2328  137.8245  163.7539 F       1  UNL1       -0.2028
     32 C         138.3065  140.3573  163.1801 C.ar    1  UNL1        0.0274
     33 C         138.5459  141.7777  163.5988 C.ar    1  UNL1        0.1002
     34 N         138.3802  142.8902  162.6064 N.ar    1  UNL1       -0.2104
     35 C         139.6321  146.2694  161.6511 C.3     1  UNL1        0.2542
     36 O         138.4540  145.4231  162.0327 O.3     1  UNL1       -0.4561
@<TRIPOS>BOND
     1    35    36    1
     2    36    24    1
     3    24    25   ar
     4    25    26   ar
     5    26    27   ar
     6    27    28   ar
     7    28    29   ar
     8    29    30   ar
     9    30    31    1
    10    30    32   ar
    11    32    23    1
    12    23    22    1
    13    22     1    1
    14     1     2    1
    15     2     3    1
    16     3     4    1
    17     4     7    1
    18     7     9    1
    19     9    10    1
    20    10    11   ar
    21    11    12   ar
    22    12    13   ar
    23    13    14   ar
    24    14    15   ar
    25    14    16    1
    26    16    17   am
    27    17    18    2
    28    17    19    1
    29    19    20    1
    30     4     5    1
    31     5     6    1
    32    32    33   ar
    33    33    34   ar
    34    34    24   ar
    35    33    27   ar
    36     6     1    1
    37    15    10   ar
    38    20    13    1
    39     7     8    1
    40    16    21    1
@<TRIPOS>MOLECULE
*****
 36 40 0 0 0
SMALL
GASTEIGER

@<TRIPOS>ATOM
      1 N         143.0843  138.6640  162.8733 N.3     1  UNL1       -0.2723
      2 C         142.1534  137.8323  163.7050 C.3     1  UNL1        0.0735
      3 C         140.7809  137.5061  163.1954 C.3     1  UNL1        0.0331
      4 C         140.3391  138.0117  161.8540 C.3     1  UNL1        0.0570
      5 C         141.2700  138.8435  161.0223 C.3     1  UNL1        0.0331
      6 C         142.6426  139.1696  161.5320 C.3     1  UNL1        0.0735
      7 N         138.9666  137.6856  161.3444 N.3     1  UNL1       -0.2934
      8 H         138.7778  136.7178  161.6055 H       1  UNL1        0.1236
      9 C         137.7869  138.4941  161.7968 C.3     1  UNL1        0.1152
     10 C         137.9993  139.7991  162.5052 C.ar    1  UNL1        0.0765
     11 C         137.9804  139.8504  164.0043 C.ar    1  UNL1        0.0193
     12 C         138.1927  141.1553  164.7128 C.ar    1  UNL1        0.0411
     13 C         138.4240  142.4090  163.9223 C.ar    1  UNL1        0.1708
     14 C         138.4429  142.3577  162.4233 C.ar    1  UNL1        0.1682
     15 N         138.2305  141.0527  161.7148 N.ar    1  UNL1       -0.2304
     16 N         138.6742  143.6114  161.6329 N.am    1  UNL1       -0.2639
     17 C         138.8865  144.9163  162.3414 C.2     1  UNL1        0.2718
     18 O         139.1178  146.1699  161.5509 O.2     1  UNL1       -0.2707
     19 C         138.8676  144.9676  163.8404 C.3     1  UNL1        0.2898
     20 O         138.6364  143.7139  164.6309 O.3     1  UNL1       -0.4628
     21 H         138.6866  143.5777  160.6490 H       1  UNL1        0.1565
     22 C         144.4568  138.9901  163.3829 C.3     1  UNL1        0.0769
     23 C         144.6270  139.9734  164.5029 C.3     1  UNL1        0.0476
     24 C         141.5745  140.4864  167.7692 C.ar    1  UNL1        0.2250
     25 C         140.7274  141.7233  167.8165 C.ar    1  UNL1        0.0593
     26 C         140.8977  142.7893  166.7750 C.ar    1  UNL1        0.0254
     27 C         141.9152  142.6183  165.6862 C.ar    1  UNL1        0.0990
     28 N         142.0855  143.6843  164.6447 N.ar    1  UNL1       -0.2400
     29 C         143.1030  143.5133  163.5560 C.ar    1  UNL1        0.1281
     30 C         143.9502  142.2763  163.5087 C.ar    1  UNL1        0.1567
     31 F         144.9677  142.1054  162.4199 F       1  UNL1       -0.2028
     32 C         143.7799  141.2104  164.5501 C.ar    1  UNL1        0.0274
     33 C         142.7623  141.3814  165.6389 C.ar    1  UNL1        0.1002
     34 N         142.5920  140.3154  166.6804 N.ar    1  UNL1       -0.2104
     35 C         142.4182  139.2732  169.9061 C.3     1  UNL1        0.2542
     36 O         141.4042  139.4204  168.8107 O.3     1  UNL1       -0.4561
@<TRIPOS>BOND
     1    35    36    1
     2    36    24    1
     3    24    25   ar
     4    25    26   ar
     5    26    27   ar
     6    27    28   ar
     7    28    29   ar
     8    29    30   ar
     9    30    31    1
    10    30    32   ar
    11    32    23    1
    12    23    22    1
    13    22     1    1
    14     1     2    1
    15     2     3    1
    16     3     4    1
    17     4     7    1
    18     7     9    1
    19     9    10    1
    20    10    11   ar
    21    11    12   ar
    22    12    13   ar
    23    13    14   ar
    24    14    15   ar
    25    14    16    1
    26    16    17   am
    27    17    18    2
    28    17    19    1
    29    19    20    1
    30     4     5    1
    31     5     6    1
    32    32    33   ar
    33    33    34   ar
    34    34    24   ar
    35    33    27   ar
    36     6     1    1
    37    15    10   ar
    38    20    13    1
    39     7     8    1
    40    16    21    1
@<TRIPOS>MOLECULE
*****
 36 40 0 0 0
SMALL
GASTEIGER

@<TRIPOS>ATOM
      1 N         142.0838  142.5587  165.8277 N.3     1  UNL1       -0.2723
      2 C         142.4344  143.3107  164.5781 C.3     1  UNL1        0.0735
      3 C         141.4096  144.1825  163.9150 C.3     1  UNL1        0.0331
      4 C         140.0341  144.3022  164.5014 C.3     1  UNL1        0.0570
      5 C         139.6835  143.5502  165.7510 C.3     1  UNL1        0.0331
      6 C         140.7084  142.6784  166.4142 C.3     1  UNL1        0.0735
      7 N         139.0094  145.1739  163.8382 N.3     1  UNL1       -0.2934
      8 H         139.4985  145.7108  163.1221 H       1  UNL1        0.1236
      9 C         137.8146  144.5554  163.1750 C.3     1  UNL1        0.1152
     10 C         137.9655  143.2855  162.3911 C.ar    1  UNL1        0.0765
     11 C         137.4911  141.9856  162.9703 C.ar    1  UNL1        0.0193
     12 C         137.6421  140.7158  162.1863 C.ar    1  UNL1        0.0411
     13 C         138.2674  140.7457  160.8232 C.ar    1  UNL1        0.1708
     14 C         138.7418  142.0454  160.2441 C.ar    1  UNL1        0.1682
     15 N         138.5909  143.3154  161.0280 N.ar    1  UNL1       -0.2304
     16 N         139.3672  142.0753  158.8810 N.am    1  UNL1       -0.2639
     17 C         139.5182  140.8055  158.0971 C.2     1  UNL1        0.2718
     18 O         140.1435  140.8354  156.7340 O.2     1  UNL1       -0.2707
     19 C         139.0438  139.5056  158.6762 C.3     1  UNL1        0.2898
     20 O         138.4184  139.4757  160.0393 O.3     1  UNL1       -0.4628
     21 H         139.6786  142.9284  158.5009 H       1  UNL1        0.1565
     22 C         143.1086  141.6870  166.4909 C.3     1  UNL1        0.0769
     23 C         142.9452  140.1959  166.4797 C.3     1  UNL1        0.0476
     24 C         138.8867  138.5947  165.3779 C.ar    1  UNL1        0.2250
     25 C         138.6934  137.8711  164.0783 C.ar    1  UNL1        0.0593
     26 C         139.8530  137.6812  163.1460 C.ar    1  UNL1        0.0254
     27 C         141.2059  138.2149  163.5132 C.ar    1  UNL1        0.0990
     28 N         142.3654  138.0251  162.5809 N.ar    1  UNL1       -0.2400
     29 C         143.7183  138.5588  162.9481 C.ar    1  UNL1        0.1281
     30 C         143.9116  139.2824  164.2478 C.ar    1  UNL1        0.1567
     31 F         145.2644  139.8161  164.6150 F       1  UNL1       -0.2028
     32 C         142.7520  139.4723  165.1801 C.ar    1  UNL1        0.0274
     33 C         141.3991  138.9385  164.8128 C.ar    1  UNL1        0.1002
     34 N         140.2395  139.1284  165.7452 N.ar    1  UNL1       -0.2104
     35 C         137.2646  137.6481  167.1731 C.3     1  UNL1        0.2542
     36 O         137.7271  138.7846  166.3103 O.3     1  UNL1       -0.4561
@<TRIPOS>BOND
     1    35    36    1
     2    36    24    1
     3    24    25   ar
     4    25    26   ar
     5    26    27   ar
     6    27    28   ar
     7    28    29   ar
     8    29    30   ar
     9    30    31    1
    10    30    32   ar
    11    32    23    1
    12    23    22    1
    13    22     1    1
    14     1     2    1
    15     2     3    1
    16     3     4    1
    17     4     7    1
    18     7     9    1
    19     9    10    1
    20    10    11   ar
    21    11    12   ar
    22    12    13   ar
    23    13    14   ar
    24    14    15   ar
    25    14    16    1
    26    16    17   am
    27    17    18    2
    28    17    19    1
    29    19    20    1
    30     4     5    1
    31     5     6    1
    32    32    33   ar
    33    33    34   ar
    34    34    24   ar
    35    33    27   ar
    36     6     1    1
    37    15    10   ar
    38    20    13    1
    39     7     8    1
    40    16    21    1
