@<TRIPOS>MOLECULE
*****
 38 42 0 0 0
SMALL
GASTEIGER

@<TRIPOS>ATOM
      1 N         139.3182  142.9053  161.0938 N.am    1  UNL1       -0.3018
      2 C         138.1398  142.8042  162.0164 C.2     1  UNL1        0.2425
      3 O         137.3492  141.5314  162.0865 O.2     1  UNL1       -0.2733
      4 H         139.8371  143.7407  161.0478 H       1  UNL1        0.1495
      5 N         140.2542  140.0765  159.0358 N.3     1  UNL1       -0.2711
      6 C         140.2522  140.3623  160.5083 C.3     1  UNL1        0.0933
      7 C         139.7059  141.7336  160.2413 C.3     1  UNL1        0.1035
      8 C         139.7079  141.4477  158.7689 C.3     1  UNL1        0.0933
      9 C         141.4173  136.5613  156.4782 C.3     1  UNL1        0.0240
     10 C         142.4213  137.1787  157.4061 C.3     1  UNL1        0.0058
     11 C         142.0336  138.3503  158.2586 C.3     1  UNL1        0.0163
     12 C         140.6419  138.9047  158.1833 C.3     1  UNL1        0.0576
     13 C         139.6379  138.2874  157.2554 C.3     1  UNL1        0.0163
     14 C         140.0256  137.1157  156.4029 C.3     1  UNL1        0.0058
     15 C         142.9684  131.8747  153.0681 C.3     1  UNL1        0.0521
     16 C         142.5807  133.0463  153.9207 C.ar    1  UNL1        0.0594
     17 C         141.8745  134.2190  153.3073 C.ar    1  UNL1        0.0144
     18 C         141.4868  135.3906  154.1599 C.ar    1  UNL1       -0.0015
     19 C         141.8051  135.3896  155.6258 C.ar    1  UNL1       -0.0034
     20 C         142.5113  134.2169  156.2390 C.ar    1  UNL1        0.0941
     21 N         142.8990  133.0453  155.3865 N.ar    1  UNL1       -0.2485
     22 C         137.7521  143.9759  162.8689 C.3     1  UNL1        0.1747
     23 N         138.3545  144.1433  164.2325 N.pl3   1  UNL1       -0.3093
     24 H         137.9006  144.6993  164.9063 H       1  UNL1        0.1487
     25 C         139.6486  143.4635  164.5693 C.ar    1  UNL1        0.1500
     26 N         141.0210  144.0418  164.3903 N.ar    1  UNL1       -0.1544
     27 N         142.0179  143.0218  164.8546 N.ar    1  UNL1       -0.2476
     28 C         143.5093  143.1822  164.8532 C.3     1  UNL1        0.1537
     29 C         141.2616  141.8131  165.3207 C.ar    1  UNL1        0.0807
     30 C         141.7172  140.4992  165.8828 C.ar    1  UNL1        0.0188
     31 C         140.7084  139.4583  166.2686 C.ar    1  UNL1        0.0054
     32 C         139.2441  139.7314  166.0923 C.ar    1  UNL1        0.0716
     33 C         138.7885  141.0453  165.5301 C.ar    1  UNL1        0.0082
     34 C         139.7973  142.0861  165.1443 C.ar    1  UNL1        0.0503
     35 C         138.2353  138.6904  166.4781 C.3     1  UNL1        0.4186
     36 F         137.2265  137.6495  166.8640 F       1  UNL1       -0.1659
     37 F         138.3515  138.0728  165.1161 F       1  UNL1       -0.1659
     38 F         138.1190  139.3080  167.8401 F       1  UNL1       -0.1659
@<TRIPOS>BOND
     1    15    16    1
     2    16    17   ar
     3    17    18   ar
     4    18    19   ar
     5     9    19    1
     6     9    10    1
     7    10    11    1
     8    11    12    1
     9    12     5    1
    10     5     6    1
    11     6     7    1
    12     7     1    1
    13     1     2   am
    14     2     3    2
    15     2    22    1
    16    22    23    1
    17    23    25    1
    18    25    26   ar
    19    26    27   ar
    20    27    28    1
    21    27    29   ar
    22    29    30   ar
    23    30    31   ar
    24    31    32   ar
    25    32    35    1
    26    35    36    1
    27    35    37    1
    28    35    38    1
    29    32    33   ar
    30    33    34   ar
    31     7     8    1
    32    12    13    1
    33    13    14    1
    34    19    20   ar
    35    20    21   ar
    36    21    16   ar
    37    14     9    1
    38     8     5    1
    39    34    25   ar
    40    34    29   ar
    41     1     4    1
    42    23    24    1
@<TRIPOS>MOLECULE
*****
 38 42 0 0 0
SMALL
GASTEIGER

@<TRIPOS>ATOM
      1 N         142.8956  137.2890  157.7862 N.am    1  UNL1       -0.3018
      2 C         143.4928  138.2857  156.8376 C.2     1  UNL1        0.2425
      3 O         143.8660  139.6544  157.3247 O.2     1  UNL1       -0.2733
      4 H         142.6506  136.3906  157.4665 H       1  UNL1        0.1495
      5 N         142.3548  138.1873  161.2524 N.3     1  UNL1       -0.2711
      6 C         141.6214  138.4307  159.9668 C.3     1  UNL1        0.0933
      7 C         142.6716  137.6611  159.2220 C.3     1  UNL1        0.1035
      8 C         143.4050  137.4177  160.5076 C.3     1  UNL1        0.0933
      9 C         141.6830  139.3035  165.5597 C.3     1  UNL1        0.0240
     10 C         141.1522  138.0044  165.0300 C.3     1  UNL1        0.0058
     11 C         141.3761  137.6324  163.5943 C.3     1  UNL1        0.0163
     12 C         142.1309  138.5594  162.6882 C.3     1  UNL1        0.0576
     13 C         142.6617  139.8585  163.2179 C.3     1  UNL1        0.0163
     14 C         142.4378  140.2305  164.6537 C.3     1  UNL1        0.0058
     15 C         140.7866  140.7914  171.3028 C.3     1  UNL1        0.0521
     16 C         141.0108  140.4195  169.8670 C.ar    1  UNL1        0.0594
     17 C         139.8604  140.4174  168.9045 C.ar    1  UNL1        0.0144
     18 C         140.0845  140.0454  167.4687 C.ar    1  UNL1       -0.0015
     19 C         141.4590  139.6755  166.9955 C.ar    1  UNL1       -0.0034
     20 C         142.6094  139.6775  167.9581 C.ar    1  UNL1        0.0941
     21 N         142.3853  140.0495  169.3938 N.ar    1  UNL1       -0.2485
     22 C         143.7167  137.9136  155.4018 C.3     1  UNL1        0.1747
     23 N         144.2167  136.5434  155.0513 N.pl3   1  UNL1       -0.3093
     24 H         145.1735  136.3304  155.1425 H       1  UNL1        0.1487
     25 C         143.2589  135.4980  154.5618 C.ar    1  UNL1        0.1500
     26 N         142.2277  135.6806  153.4879 N.ar    1  UNL1       -0.1544
     27 N         141.4956  134.3819  153.3227 N.ar    1  UNL1       -0.2476
     28 C         140.3805  134.1152  152.3555 C.3     1  UNL1        0.1537
     29 C         142.0743  133.3966  154.2944 C.ar    1  UNL1        0.0807
     30 C         141.7498  131.9605  154.5809 C.ar    1  UNL1        0.0188
     31 C         142.5150  131.2141  155.6331 C.ar    1  UNL1        0.0054
     32 C         143.6048  131.9039  156.3990 C.ar    1  UNL1        0.0716
     33 C         143.9294  133.3401  156.1125 C.ar    1  UNL1        0.0082
     34 C         143.1641  134.0864  155.0602 C.ar    1  UNL1        0.0503
     35 C         144.3701  131.1575  157.4513 C.3     1  UNL1        0.4186
     36 F         145.1354  130.4112  158.5035 F       1  UNL1       -0.1659
     37 F         143.1330  130.3861  157.8039 F       1  UNL1       -0.1659
     38 F         145.6072  131.9289  157.0987 F       1  UNL1       -0.1659
@<TRIPOS>BOND
     1    15    16    1
     2    16    17   ar
     3    17    18   ar
     4    18    19   ar
     5     9    19    1
     6     9    10    1
     7    10    11    1
     8    11    12    1
     9    12     5    1
    10     5     6    1
    11     6     7    1
    12     7     1    1
    13     1     2   am
    14     2     3    2
    15     2    22    1
    16    22    23    1
    17    23    25    1
    18    25    26   ar
    19    26    27   ar
    20    27    28    1
    21    27    29   ar
    22    29    30   ar
    23    30    31   ar
    24    31    32   ar
    25    32    35    1
    26    35    36    1
    27    35    37    1
    28    35    38    1
    29    32    33   ar
    30    33    34   ar
    31     7     8    1
    32    12    13    1
    33    13    14    1
    34    19    20   ar
    35    20    21   ar
    36    21    16   ar
    37    14     9    1
    38     8     5    1
    39    34    25   ar
    40    34    29   ar
    41     1     4    1
    42    23    24    1
@<TRIPOS>MOLECULE
*****
 38 42 0 0 0
SMALL
GASTEIGER

@<TRIPOS>ATOM
      1 N         139.4731  143.1362  161.2572 N.am    1  UNL1       -0.3018
      2 C         138.2323  143.0995  162.0991 C.2     1  UNL1        0.2425
      3 O         137.3566  141.8816  162.0918 O.2     1  UNL1       -0.2733
      4 H         140.0478  143.9355  161.2620 H       1  UNL1        0.1495
      5 N         140.3548  140.2844  159.2067 N.3     1  UNL1       -0.2711
      6 C         140.0392  141.7262  158.9390 C.3     1  UNL1        0.0933
      7 C         139.8383  141.9549  160.4079 C.3     1  UNL1        0.1035
      8 C         140.1539  140.5132  160.6755 C.3     1  UNL1        0.0933
      9 C         141.4504  136.7407  156.6588 C.3     1  UNL1        0.0240
     10 C         140.0533  137.2859  156.6246 C.3     1  UNL1        0.0058
     11 C         139.6882  138.4670  157.4739 C.3     1  UNL1        0.0163
     12 C         140.7200  139.1032  158.3574 C.3     1  UNL1        0.0576
     13 C         142.1170  138.5581  158.3916 C.3     1  UNL1        0.0163
     14 C         142.4822  137.3769  157.5423 C.3     1  UNL1        0.0058
     15 C         142.9105  132.0159  153.2612 C.3     1  UNL1        0.0521
     16 C         142.5455  133.1971  154.1106 C.ar    1  UNL1        0.0594
     17 C         141.8052  134.3541  153.5079 C.ar    1  UNL1        0.0144
     18 C         141.4402  135.5353  154.3573 C.ar    1  UNL1       -0.0015
     19 C         141.8155  135.5595  155.8095 C.ar    1  UNL1       -0.0034
     20 C         142.5558  134.4025  156.4121 C.ar    1  UNL1        0.0941
     21 N         142.9208  133.2213  155.5627 N.ar    1  UNL1       -0.2485
     22 C         137.8671  144.2807  162.9484 C.3     1  UNL1        0.1747
     23 N         138.6083  144.5439  164.2257 N.pl3   1  UNL1       -0.3093
     24 H         138.1226  144.8658  165.0193 H       1  UNL1        0.1487
     25 C         140.0894  144.3166  164.2939 C.ar    1  UNL1        0.1500
     26 N         141.1259  145.0004  163.4525 N.ar    1  UNL1       -0.1544
     27 N         142.4711  144.4720  163.8540 N.ar    1  UNL1       -0.2476
     28 C         143.7900  144.8819  163.2688 C.3     1  UNL1        0.1537
     29 C         142.2659  143.4617  164.9436 C.ar    1  UNL1        0.0807
     30 C         143.2293  142.6168  165.7233 C.ar    1  UNL1        0.0188
     31 C         142.7206  141.6759  166.7749 C.ar    1  UNL1        0.0054
     32 C         141.2486  141.5798  167.0468 C.ar    1  UNL1        0.0716
     33 C         140.2853  142.4248  166.2670 C.ar    1  UNL1        0.0082
     34 C         140.7939  143.3657  165.2155 C.ar    1  UNL1        0.0503
     35 C         140.7400  140.6388  168.0984 C.3     1  UNL1        0.4186
     36 F         140.2314  139.6979  169.1500 F       1  UNL1       -0.1659
     37 F         140.2214  141.8030  168.8894 F       1  UNL1       -0.1659
     38 F         141.2586  139.4747  167.3075 F       1  UNL1       -0.1659
@<TRIPOS>BOND
     1    15    16    1
     2    16    17   ar
     3    17    18   ar
     4    18    19   ar
     5     9    19    1
     6     9    10    1
     7    10    11    1
     8    11    12    1
     9    12     5    1
    10     5     6    1
    11     6     7    1
    12     7     1    1
    13     1     2   am
    14     2     3    2
    15     2    22    1
    16    22    23    1
    17    23    25    1
    18    25    26   ar
    19    26    27   ar
    20    27    28    1
    21    27    29   ar
    22    29    30   ar
    23    30    31   ar
    24    31    32   ar
    25    32    35    1
    26    35    36    1
    27    35    37    1
    28    35    38    1
    29    32    33   ar
    30    33    34   ar
    31     7     8    1
    32    12    13    1
    33    13    14    1
    34    19    20   ar
    35    20    21   ar
    36    21    16   ar
    37    14     9    1
    38     8     5    1
    39    34    25   ar
    40    34    29   ar
    41     1     4    1
    42    23    24    1
@<TRIPOS>MOLECULE
*****
 38 42 0 0 0
SMALL
GASTEIGER

@<TRIPOS>ATOM
      1 N         139.4551  140.6357  157.0687 N.am    1  UNL1       -0.3018
      2 C         140.1031  141.5381  158.0766 C.2     1  UNL1        0.2425
      3 O         141.3794  141.1214  158.7454 O.2     1  UNL1       -0.2733
      4 H         138.6174  140.9093  156.6298 H       1  UNL1        0.1495
      5 N         140.9722  137.4509  156.2503 N.3     1  UNL1       -0.2711
      6 C         139.9358  137.9109  157.2324 C.3     1  UNL1        0.0933
      7 C         140.0835  139.3166  156.7297 C.3     1  UNL1        0.1035
      8 C         141.1198  138.8565  155.7478 C.3     1  UNL1        0.0933
      9 C         142.8574  133.4934  155.2333 C.3     1  UNL1        0.0240
     10 C         141.6852  133.9916  154.4409 C.3     1  UNL1        0.0058
     11 C         141.0568  135.3107  154.7799 C.3     1  UNL1        0.0163
     12 C         141.6006  136.1318  155.9113 C.3     1  UNL1        0.0576
     13 C         142.7728  135.6337  156.7037 C.3     1  UNL1        0.0163
     14 C         143.4012  134.3145  156.3647 C.3     1  UNL1        0.0058
     15 C         145.3705  128.2168  153.8765 C.3     1  UNL1        0.0521
     16 C         144.7422  129.5360  154.2157 C.ar    1  UNL1        0.0594
     17 C         143.8667  130.2292  153.2144 C.ar    1  UNL1        0.0144
     18 C         143.2384  131.5483  153.5536 C.ar    1  UNL1       -0.0015
     19 C         143.4857  132.1743  154.8942 C.ar    1  UNL1       -0.0034
     20 C         144.3613  131.4810  155.8955 C.ar    1  UNL1        0.0941
     21 N         144.9896  130.1619  155.5563 N.ar    1  UNL1       -0.2485
     22 C         139.4747  142.8573  158.4156 C.3     1  UNL1        0.1747
     23 N         138.3792  142.9255  159.4381 N.pl3   1  UNL1       -0.3093
     24 H         137.7531  143.6853  159.4388 H       1  UNL1        0.1487
     25 C         138.2376  141.8360  160.4594 C.ar    1  UNL1        0.1500
     26 N         138.0789  140.3726  160.1712 N.ar    1  UNL1       -0.1544
     27 N         137.9731  139.6509  161.4820 N.ar    1  UNL1       -0.2476
     28 C         137.8038  138.1715  161.6627 C.3     1  UNL1        0.1537
     29 C         138.0664  140.6683  162.5802 C.ar    1  UNL1        0.0807
     30 C         138.0237  140.5395  164.0740 C.ar    1  UNL1        0.0188
     31 C         138.1444  141.7612  164.9358 C.ar    1  UNL1        0.0054
     32 C         138.3078  143.1118  164.3039 C.ar    1  UNL1        0.0716
     33 C         138.3506  143.2406  162.8101 C.ar    1  UNL1        0.0082
     34 C         138.2299  142.0188  161.9482 C.ar    1  UNL1        0.0503
     35 C         138.4285  144.3335  165.1658 C.3     1  UNL1        0.4186
     36 F         138.5493  145.5552  166.0277 F       1  UNL1       -0.1659
     37 F         136.9463  144.5444  165.0745 F       1  UNL1       -0.1659
     38 F         139.9108  144.1226  165.2571 F       1  UNL1       -0.1659
@<TRIPOS>BOND
     1    15    16    1
     2    16    17   ar
     3    17    18   ar
     4    18    19   ar
     5     9    19    1
     6     9    10    1
     7    10    11    1
     8    11    12    1
     9    12     5    1
    10     5     6    1
    11     6     7    1
    12     7     1    1
    13     1     2   am
    14     2     3    2
    15     2    22    1
    16    22    23    1
    17    23    25    1
    18    25    26   ar
    19    26    27   ar
    20    27    28    1
    21    27    29   ar
    22    29    30   ar
    23    30    31   ar
    24    31    32   ar
    25    32    35    1
    26    35    36    1
    27    35    37    1
    28    35    38    1
    29    32    33   ar
    30    33    34   ar
    31     7     8    1
    32    12    13    1
    33    13    14    1
    34    19    20   ar
    35    20    21   ar
    36    21    16   ar
    37    14     9    1
    38     8     5    1
    39    34    25   ar
    40    34    29   ar
    41     1     4    1
    42    23    24    1
@<TRIPOS>MOLECULE
*****
 38 42 0 0 0
SMALL
GASTEIGER

@<TRIPOS>ATOM
      1 N         138.6966  142.2096  156.8716 N.am    1  UNL1       -0.3018
      2 C         138.3811  141.8365  158.2897 C.2     1  UNL1        0.2425
      3 O         138.2008  142.9072  159.3247 O.2     1  UNL1       -0.2733
      4 H         138.8149  141.5069  156.1923 H       1  UNL1        0.1495
      5 N         139.0233  145.6956  155.9464 N.3     1  UNL1       -0.2711
      6 C         138.0462  144.6018  155.6318 C.3     1  UNL1        0.0933
      7 C         138.8320  143.6536  156.4884 C.3     1  UNL1        0.1035
      8 C         139.8090  144.7474  156.8029 C.3     1  UNL1        0.0933
      9 C         139.4293  150.0273  154.7968 C.3     1  UNL1        0.0240
     10 C         138.6679  149.6472  156.0322 C.3     1  UNL1        0.0058
     11 C         138.5326  148.2034  156.4153 C.3     1  UNL1        0.0163
     12 C         139.1586  147.1395  155.5632 C.3     1  UNL1        0.0576
     13 C         139.9200  147.5194  154.3279 C.3     1  UNL1        0.0163
     14 C         140.0553  148.9633  153.9447 C.3     1  UNL1        0.0058
     15 C         139.9700  155.8030  153.2646 C.3     1  UNL1        0.0521
     16 C         139.8349  154.3591  153.6477 C.ar    1  UNL1        0.0594
     17 C         138.6524  153.9037  154.4503 C.ar    1  UNL1        0.0144
     18 C         138.5172  152.4597  154.8333 C.ar    1  UNL1       -0.0015
     19 C         139.5645  151.4712  154.4137 C.ar    1  UNL1       -0.0034
     20 C         140.7470  151.9267  153.6111 C.ar    1  UNL1        0.0941
     21 N         140.8822  153.3706  153.2280 N.ar    1  UNL1       -0.2485
     22 C         138.2457  140.3926  158.6729 C.3     1  UNL1        0.1747
     23 N         138.2784  139.9941  160.1187 N.pl3   1  UNL1       -0.3093
     24 H         137.5228  140.2190  160.7085 H       1  UNL1        0.1487
     25 C         139.4622  139.2530  160.6659 C.ar    1  UNL1        0.1500
     26 N         140.6930  138.8686  159.8994 N.ar    1  UNL1       -0.1544
     27 N         141.6144  138.1442  160.8354 N.ar    1  UNL1       -0.2476
     28 C         142.9608  137.5818  160.4876 C.3     1  UNL1        0.1537
     29 C         140.9532  138.0809  162.1803 C.ar    1  UNL1        0.0807
     30 C         141.3905  137.4878  163.4868 C.ar    1  UNL1        0.0188
     31 C         140.4976  137.5800  164.6885 C.ar    1  UNL1        0.0054
     32 C         139.1674  138.2653  164.5837 C.ar    1  UNL1        0.0716
     33 C         138.7301  138.8584  163.2772 C.ar    1  UNL1        0.0082
     34 C         139.6230  138.7662  162.0755 C.ar    1  UNL1        0.0503
     35 C         138.2745  138.3574  165.7855 C.3     1  UNL1        0.4186
     36 F         137.3816  138.4496  166.9873 F       1  UNL1       -0.1659
     37 F         138.2821  136.8623  165.9059 F       1  UNL1       -0.1659
     38 F         138.2669  139.8525  165.6652 F       1  UNL1       -0.1659
@<TRIPOS>BOND
     1    15    16    1
     2    16    17   ar
     3    17    18   ar
     4    18    19   ar
     5     9    19    1
     6     9    10    1
     7    10    11    1
     8    11    12    1
     9    12     5    1
    10     5     6    1
    11     6     7    1
    12     7     1    1
    13     1     2   am
    14     2     3    2
    15     2    22    1
    16    22    23    1
    17    23    25    1
    18    25    26   ar
    19    26    27   ar
    20    27    28    1
    21    27    29   ar
    22    29    30   ar
    23    30    31   ar
    24    31    32   ar
    25    32    35    1
    26    35    36    1
    27    35    37    1
    28    35    38    1
    29    32    33   ar
    30    33    34   ar
    31     7     8    1
    32    12    13    1
    33    13    14    1
    34    19    20   ar
    35    20    21   ar
    36    21    16   ar
    37    14     9    1
    38     8     5    1
    39    34    25   ar
    40    34    29   ar
    41     1     4    1
    42    23    24    1
@<TRIPOS>MOLECULE
*****
 38 42 0 0 0
SMALL
GASTEIGER

@<TRIPOS>ATOM
      1 N         142.0238  142.7325  157.8852 N.am    1  UNL1       -0.3018
      2 C         141.1402  143.0577  159.0529 C.2     1  UNL1        0.2425
      3 O         140.4713  141.9541  159.8176 O.2     1  UNL1       -0.2733
      4 H         142.4628  143.4568  157.3833 H       1  UNL1        0.1495
      5 N         142.5420  139.2829  156.9124 N.3     1  UNL1       -0.2711
      6 C         141.4069  140.2572  156.8014 C.3     1  UNL1        0.0933
      7 C         142.2385  141.3036  157.4823 C.3     1  UNL1        0.1035
      8 C         143.3736  140.3294  157.5932 C.3     1  UNL1        0.0933
      9 C         143.1861  134.9965  155.7035 C.3     1  UNL1        0.0240
     10 C         143.0418  135.3534  157.1533 C.3     1  UNL1        0.0058
     11 C         142.8272  136.7821  157.5562 C.3     1  UNL1        0.0163
     12 C         142.7567  137.8541  156.5094 C.3     1  UNL1        0.0576
     13 C         142.9009  137.4973  155.0596 C.3     1  UNL1        0.0163
     14 C         143.1156  136.0685  154.6567 C.3     1  UNL1        0.0058
     15 C         144.0446  129.2811  154.0919 C.3     1  UNL1        0.0521
     16 C         143.8300  130.7100  154.4948 C.ar    1  UNL1        0.0594
     17 C         142.9078  131.5836  153.6972 C.ar    1  UNL1        0.0144
     18 C         142.6932  133.0125  154.1001 C.ar    1  UNL1       -0.0015
     19 C         143.4007  133.5677  155.3007 C.ar    1  UNL1       -0.0034
     20 C         144.3229  132.6939  156.0982 C.ar    1  UNL1        0.0941
     21 N         144.5375  131.2650  155.6953 N.ar    1  UNL1       -0.2485
     22 C         140.9255  144.4865  159.4558 C.3     1  UNL1        0.1747
     23 N         141.8713  145.1452  160.4160 N.pl3   1  UNL1       -0.3093
     24 H         142.1622  146.0731  160.2620 H       1  UNL1        0.1487
     25 C         142.3737  144.3902  161.6108 C.ar    1  UNL1        0.1500
     26 N         143.7264  143.7567  161.7485 N.ar    1  UNL1       -0.1544
     27 N         143.8004  143.1111  163.1004 N.ar    1  UNL1       -0.2476
     28 C         144.9750  142.3625  163.6569 C.3     1  UNL1        0.1537
     29 C         142.4934  143.3456  163.7982 C.ar    1  UNL1        0.0807
     30 C         141.9923  142.9415  165.1530 C.ar    1  UNL1        0.0188
     31 C         140.6095  143.3278  165.5871 C.ar    1  UNL1        0.0054
     32 C         139.7278  144.1183  164.6665 C.ar    1  UNL1        0.0716
     33 C         140.2289  144.5225  163.3117 C.ar    1  UNL1        0.0082
     34 C         141.6117  144.1361  162.8776 C.ar    1  UNL1        0.0503
     35 C         138.3449  144.5047  165.1006 C.3     1  UNL1        0.4186
     36 F         136.9621  144.8910  165.5348 F       1  UNL1       -0.1659
     37 F         137.8113  144.1050  163.7569 F       1  UNL1       -0.1659
     38 F         138.8785  144.9043  166.4443 F       1  UNL1       -0.1659
@<TRIPOS>BOND
     1    15    16    1
     2    16    17   ar
     3    17    18   ar
     4    18    19   ar
     5     9    19    1
     6     9    10    1
     7    10    11    1
     8    11    12    1
     9    12     5    1
    10     5     6    1
    11     6     7    1
    12     7     1    1
    13     1     2   am
    14     2     3    2
    15     2    22    1
    16    22    23    1
    17    23    25    1
    18    25    26   ar
    19    26    27   ar
    20    27    28    1
    21    27    29   ar
    22    29    30   ar
    23    30    31   ar
    24    31    32   ar
    25    32    35    1
    26    35    36    1
    27    35    37    1
    28    35    38    1
    29    32    33   ar
    30    33    34   ar
    31     7     8    1
    32    12    13    1
    33    13    14    1
    34    19    20   ar
    35    20    21   ar
    36    21    16   ar
    37    14     9    1
    38     8     5    1
    39    34    25   ar
    40    34    29   ar
    41     1     4    1
    42    23    24    1
@<TRIPOS>MOLECULE
*****
 38 42 0 0 0
SMALL
GASTEIGER

@<TRIPOS>ATOM
      1 N         137.5682  140.3416  157.7234 N.am    1  UNL1       -0.3018
      2 C         137.2163  141.4756  156.8068 C.2     1  UNL1        0.2425
      3 O         137.4269  142.8926  157.2516 O.2     1  UNL1       -0.2733
      4 H         137.4300  139.4116  157.4315 H       1  UNL1        0.1495
      5 N         138.9263  141.0250  161.0102 N.3     1  UNL1       -0.2711
      6 C         139.3068  141.3955  159.6073 C.3     1  UNL1        0.0933
      7 C         138.1307  140.6246  159.0849 C.3     1  UNL1        0.1035
      8 C         137.7504  140.2542  160.4877 C.3     1  UNL1        0.0933
      9 C         140.6139  141.8741  165.0945 C.3     1  UNL1        0.0240
     10 C         141.1427  140.7248  164.2885 C.3     1  UNL1        0.0058
     11 C         140.5802  140.4418  162.9271 C.3     1  UNL1        0.0163
     12 C         139.4888  141.3080  162.3716 C.3     1  UNL1        0.0576
     13 C         138.9600  142.4573  163.1775 C.3     1  UNL1        0.0163
     14 C         139.5226  142.7403  164.5389 C.3     1  UNL1        0.0058
     15 C         142.8639  143.0060  170.5402 C.3     1  UNL1        0.0521
     16 C         142.3014  142.7230  169.1787 C.ar    1  UNL1        0.0594
     17 C         140.8341  142.8989  168.9222 C.ar    1  UNL1        0.0144
     18 C         140.2716  142.6160  167.5607 C.ar    1  UNL1       -0.0015
     19 C         141.1764  142.1570  166.4558 C.ar    1  UNL1       -0.0034
     20 C         142.6438  141.9811  166.7125 C.ar    1  UNL1        0.0941
     21 N         143.2063  142.2641  168.0739 N.ar    1  UNL1       -0.2485
     22 C         136.6538  141.1925  155.4454 C.3     1  UNL1        0.1747
     23 N         135.1920  141.3997  155.1799 N.pl3   1  UNL1       -0.3093
     24 H         134.9033  142.0205  154.4724 H       1  UNL1        0.1487
     25 C         134.1701  140.6612  155.9925 C.ar    1  UNL1        0.1500
     26 N         134.4568  139.6288  157.0423 N.ar    1  UNL1       -0.1544
     27 N         133.1460  139.1549  157.5965 N.ar    1  UNL1       -0.2476
     28 C         132.9639  138.1228  158.6696 C.3     1  UNL1        0.1537
     29 C         132.0492  139.8944  156.8892 C.ar    1  UNL1        0.0807
     30 C         130.5559  139.8403  157.0198 C.ar    1  UNL1        0.0188
     31 C         129.6955  140.7171  156.1591 C.ar    1  UNL1        0.0054
     32 C         130.3285  141.6481  155.1677 C.ar    1  UNL1        0.0716
     33 C         131.8218  141.7021  155.0371 C.ar    1  UNL1        0.0082
     34 C         132.6821  140.8253  155.8979 C.ar    1  UNL1        0.0503
     35 C         129.4681  142.5249  154.3069 C.3     1  UNL1        0.4186
     36 F         128.6077  143.4017  153.4462 F       1  UNL1       -0.1659
     37 F         130.6605  142.8674  153.4639 F       1  UNL1       -0.1659
     38 F         128.2757  142.1824  155.1500 F       1  UNL1       -0.1659
@<TRIPOS>BOND
     1    15    16    1
     2    16    17   ar
     3    17    18   ar
     4    18    19   ar
     5     9    19    1
     6     9    10    1
     7    10    11    1
     8    11    12    1
     9    12     5    1
    10     5     6    1
    11     6     7    1
    12     7     1    1
    13     1     2   am
    14     2     3    2
    15     2    22    1
    16    22    23    1
    17    23    25    1
    18    25    26   ar
    19    26    27   ar
    20    27    28    1
    21    27    29   ar
    22    29    30   ar
    23    30    31   ar
    24    31    32   ar
    25    32    35    1
    26    35    36    1
    27    35    37    1
    28    35    38    1
    29    32    33   ar
    30    33    34   ar
    31     7     8    1
    32    12    13    1
    33    13    14    1
    34    19    20   ar
    35    20    21   ar
    36    21    16   ar
    37    14     9    1
    38     8     5    1
    39    34    25   ar
    40    34    29   ar
    41     1     4    1
    42    23    24    1
@<TRIPOS>MOLECULE
*****
 38 42 0 0 0
SMALL
GASTEIGER

@<TRIPOS>ATOM
      1 N         142.9749  137.5434  157.9275 N.am    1  UNL1       -0.3018
      2 C         141.8100  137.3969  156.9941 C.2     1  UNL1        0.2425
      3 O         140.4132  137.6059  157.4992 O.2     1  UNL1       -0.2733
      4 H         143.8917  137.4063  157.5959 H       1  UNL1        0.1495
      5 N         142.4151  138.4018  161.4008 N.3     1  UNL1       -0.2711
      6 C         143.1306  137.2956  160.6837 C.3     1  UNL1        0.0933
      7 C         142.7430  137.8990  159.3662 C.3     1  UNL1        0.1035
      8 C         142.0275  139.0052  160.0834 C.3     1  UNL1        0.0933
      9 C         141.7193  139.4686  165.7169 C.3     1  UNL1        0.0240
     10 C         140.6735  138.7112  164.9534 C.3     1  UNL1        0.0058
     11 C         140.9055  138.3556  163.5148 C.3     1  UNL1        0.0163
     12 C         142.1831  138.7574  162.8395 C.3     1  UNL1        0.0576
     13 C         143.2289  139.5148  163.6029 C.3     1  UNL1        0.0163
     14 C         142.9970  139.8704  165.0416 C.3     1  UNL1        0.0058
     15 C         140.7908  140.8907  171.4714 C.3     1  UNL1        0.0521
     16 C         141.0230  140.5352  170.0328 C.ar    1  UNL1        0.0594
     17 C         139.8585  140.3932  169.0981 C.ar    1  UNL1        0.0144
     18 C         140.0906  140.0377  167.6594 C.ar    1  UNL1       -0.0015
     19 C         141.4873  139.8241  167.1555 C.ar    1  UNL1       -0.0034
     20 C         142.6517  139.9661  168.0903 C.ar    1  UNL1        0.0941
     21 N         142.4196  140.3216  169.5289 N.ar    1  UNL1       -0.2485
     22 C         142.0419  137.0413  155.5554 C.3     1  UNL1        0.1747
     23 N         141.8267  135.6326  155.0869 N.pl3   1  UNL1       -0.3093
     24 H         141.2317  135.4532  154.3233 H       1  UNL1        0.1487
     25 C         142.5181  134.4972  155.7818 C.ar    1  UNL1        0.1500
     26 N         143.6309  134.6210  156.7800 N.ar    1  UNL1       -0.1544
     27 N         144.0186  133.2390  157.2156 N.ar    1  UNL1       -0.2476
     28 C         145.0912  132.8952  158.2062 C.3     1  UNL1        0.1537
     29 C         143.1455  132.2611  156.4866 C.ar    1  UNL1        0.0807
     30 C         143.0750  130.7631  156.5152 C.ar    1  UNL1        0.0188
     31 C         142.0772  130.0427  155.6577 C.ar    1  UNL1        0.0054
     32 C         141.1499  130.8203  154.7716 C.ar    1  UNL1        0.0716
     33 C         141.2203  132.3183  154.7429 C.ar    1  UNL1        0.0082
     34 C         142.2181  133.0387  155.6005 C.ar    1  UNL1        0.0503
     35 C         140.1520  130.0998  153.9140 C.3     1  UNL1        0.4186
     36 F         139.1542  129.3794  153.0566 F       1  UNL1       -0.1659
     37 F         141.2602  129.6307  153.0186 F       1  UNL1       -0.1659
     38 F         139.0439  130.5689  154.8095 F       1  UNL1       -0.1659
@<TRIPOS>BOND
     1    15    16    1
     2    16    17   ar
     3    17    18   ar
     4    18    19   ar
     5     9    19    1
     6     9    10    1
     7    10    11    1
     8    11    12    1
     9    12     5    1
    10     5     6    1
    11     6     7    1
    12     7     1    1
    13     1     2   am
    14     2     3    2
    15     2    22    1
    16    22    23    1
    17    23    25    1
    18    25    26   ar
    19    26    27   ar
    20    27    28    1
    21    27    29   ar
    22    29    30   ar
    23    30    31   ar
    24    31    32   ar
    25    32    35    1
    26    35    36    1
    27    35    37    1
    28    35    38    1
    29    32    33   ar
    30    33    34   ar
    31     7     8    1
    32    12    13    1
    33    13    14    1
    34    19    20   ar
    35    20    21   ar
    36    21    16   ar
    37    14     9    1
    38     8     5    1
    39    34    25   ar
    40    34    29   ar
    41     1     4    1
    42    23    24    1
@<TRIPOS>MOLECULE
*****
 38 42 0 0 0
SMALL
GASTEIGER

@<TRIPOS>ATOM
      1 N         139.2244  138.9504  161.6419 N.am    1  UNL1       -0.3018
      2 C         138.9347  139.1213  163.1037 C.2     1  UNL1        0.2425
      3 O         138.7052  140.4921  163.6676 O.2     1  UNL1       -0.2733
      4 H         139.3750  138.0506  161.2718 H       1  UNL1        0.1495
      5 N         139.3697  141.8476  159.4742 N.3     1  UNL1       -0.2711
      6 C         138.2744  141.1064  160.1819 C.3     1  UNL1        0.0933
      7 C         139.2846  140.1504  160.7440 C.3     1  UNL1        0.1035
      8 C         140.3798  140.8918  160.0363 C.3     1  UNL1        0.0933
      9 C         139.5504  145.4479  156.7806 C.3     1  UNL1        0.0240
     10 C         140.1869  145.4940  158.1381 C.3     1  UNL1        0.0058
     11 C         140.1267  144.2940  159.0359 C.3     1  UNL1        0.0163
     12 C         139.4299  143.0477  158.5763 C.3     1  UNL1        0.0576
     13 C         138.7934  143.0015  157.2189 C.3     1  UNL1        0.0163
     14 C         138.8536  144.2016  156.3210 C.3     1  UNL1        0.0058
     15 C         139.7918  150.2482  153.1892 C.3     1  UNL1        0.0521
     16 C         139.7314  149.0481  154.0870 C.ar    1  UNL1        0.0594
     17 C         140.4922  147.8056  153.7303 C.ar    1  UNL1        0.0144
     18 C         140.4318  146.6055  154.6281 C.ar    1  UNL1       -0.0015
     19 C         139.6107  146.6480  155.8828 C.ar    1  UNL1       -0.0034
     20 C         138.8500  147.8906  156.2395 C.ar    1  UNL1        0.0941
     21 N         138.9104  149.0907  155.3416 N.ar    1  UNL1       -0.2485
     22 C         138.8744  137.9212  164.0015 C.3     1  UNL1        0.1747
     23 N         140.0891  137.5018  164.7755 N.pl3   1  UNL1       -0.3093
     24 H         140.1433  136.5940  165.1526 H       1  UNL1        0.1487
     25 C         141.2210  138.4656  164.9748 C.ar    1  UNL1        0.1500
     26 N         142.4600  138.5566  164.1341 N.ar    1  UNL1       -0.1544
     27 N         143.3174  139.6548  164.6897 N.ar    1  UNL1       -0.2476
     28 C         144.6499  140.0891  164.1550 C.3     1  UNL1        0.1537
     29 C         142.6084  140.2426  165.8737 C.ar    1  UNL1        0.0807
     30 C         142.9753  141.3521  166.8141 C.ar    1  UNL1        0.0188
     31 C         142.0464  141.7266  167.9307 C.ar    1  UNL1        0.0054
     32 C         140.7508  140.9916  168.1070 C.ar    1  UNL1        0.0716
     33 C         140.3840  139.8821  167.1666 C.ar    1  UNL1        0.0082
     34 C         141.3128  139.5076  166.0499 C.ar    1  UNL1        0.0503
     35 C         139.8219  141.3661  169.2237 C.3     1  UNL1        0.4186
     36 F         138.8931  141.7406  170.3404 F       1  UNL1       -0.1659
     37 F         140.2496  142.7985  169.0991 F       1  UNL1       -0.1659
     38 F         139.3943  139.9338  169.3484 F       1  UNL1       -0.1659
@<TRIPOS>BOND
     1    15    16    1
     2    16    17   ar
     3    17    18   ar
     4    18    19   ar
     5     9    19    1
     6     9    10    1
     7    10    11    1
     8    11    12    1
     9    12     5    1
    10     5     6    1
    11     6     7    1
    12     7     1    1
    13     1     2   am
    14     2     3    2
    15     2    22    1
    16    22    23    1
    17    23    25    1
    18    25    26   ar
    19    26    27   ar
    20    27    28    1
    21    27    29   ar
    22    29    30   ar
    23    30    31   ar
    24    31    32   ar
    25    32    35    1
    26    35    36    1
    27    35    37    1
    28    35    38    1
    29    32    33   ar
    30    33    34   ar
    31     7     8    1
    32    12    13    1
    33    13    14    1
    34    19    20   ar
    35    20    21   ar
    36    21    16   ar
    37    14     9    1
    38     8     5    1
    39    34    25   ar
    40    34    29   ar
    41     1     4    1
    42    23    24    1
