@<TRIPOS>MOLECULE
*****
 23 25 0 0 0
SMALL
GASTEIGER

@<TRIPOS>ATOM
      1 C         141.1450  140.8526  167.3045 C.3     1  UNL1        0.1881
      2 C         140.9288  141.2767  168.7270 C.3     1  UNL1        0.0472
      3 C         140.2936  142.6022  169.0262 C.3     1  UNL1        0.0211
      4 C         140.0774  143.0261  170.4486 C.3     1  UNL1        0.0687
      5 N         140.4964  142.1247  171.5719 N.3     1  UNL1       -0.2975
      6 C         141.1316  140.7992  171.2727 C.3     1  UNL1        0.0687
      7 C         141.3478  140.3752  169.8503 C.3     1  UNL1        0.0211
      8 H         139.6599  141.9326  172.1230 H       1  UNL1        0.1232
      9 C         140.2700  139.7976  166.6951 C.ar    1  UNL1        0.0172
     10 C         140.7870  138.9531  165.5684 C.ar    1  UNL1       -0.0008
     11 C         139.9120  137.8982  164.9591 C.ar    1  UNL1       -0.0002
     12 C         138.5199  137.6877  165.4764 C.ar    1  UNL1       -0.0000
     13 C         138.0027  138.5322  166.6031 C.ar    1  UNL1       -0.0002
     14 C         138.8778  139.5872  167.2125 C.ar    1  UNL1       -0.0008
     15 O         142.2362  141.4835  166.4914 O.3     1  UNL1       -0.4739
     16 CL        143.8381  145.2192  163.2542 Cl      1  UNL1       -0.0813
     17 C         142.7292  144.5170  163.9804 C.ar    1  UNL1        0.0712
     18 C         141.3123  144.9805  163.8142 C.ar    1  UNL1        0.0125
     19 C         140.2034  144.2784  164.5403 C.ar    1  UNL1        0.0040
     20 C         140.5114  143.1127  165.4327 C.ar    1  UNL1        0.0378
     21 C         141.9283  142.6492  165.5990 C.ar    1  UNL1        0.1501
     22 C         143.0372  143.3514  164.8728 C.ar    1  UNL1        0.1020
     23 CL        144.4540  142.8879  165.0391 Cl      1  UNL1       -0.0782
@<TRIPOS>BOND
     1    16    17    1
     2    17    18   ar
     3    18    19   ar
     4    19    20   ar
     5    20    21   ar
     6    21    15    1
     7    15     1    1
     8     1     9    1
     9     9    10   ar
    10    10    11   ar
    11    11    12   ar
    12    12    13   ar
    13    13    14   ar
    14     1     2    1
    15     2     3    1
    16     3     4    1
    17     4     5    1
    18     5     6    1
    19     6     7    1
    20    21    22   ar
    21    22    23    1
    22    22    17   ar
    23    14     9   ar
    24     7     2    1
    25     5     8    1
@<TRIPOS>MOLECULE
*****
 23 25 0 0 0
SMALL
GASTEIGER

@<TRIPOS>ATOM
      1 C         141.3456  140.9801  166.4440 C.3     1  UNL1        0.1881
      2 C         142.0758  140.9811  167.7544 C.3     1  UNL1        0.0472
      3 C         142.0277  139.7718  168.6406 C.3     1  UNL1        0.0211
      4 C         142.7579  139.7728  169.9508 C.3     1  UNL1        0.0687
      5 N         143.5360  140.9830  170.3749 N.3     1  UNL1       -0.2975
      6 C         143.5840  142.1923  169.4887 C.3     1  UNL1        0.0687
      7 C         142.8539  142.1913  168.1785 C.3     1  UNL1        0.0211
      8 H         144.5003  140.6800  170.5120 H       1  UNL1        0.1232
      9 C         140.4544  139.8289  166.0829 C.ar    1  UNL1        0.0172
     10 C         139.0487  139.7765  166.6036 C.ar    1  UNL1       -0.0008
     11 C         138.1576  138.6252  166.2425 C.ar    1  UNL1       -0.0002
     12 C         138.6721  137.5264  165.3606 C.ar    1  UNL1       -0.0000
     13 C         140.0779  137.5788  164.8398 C.ar    1  UNL1       -0.0002
     14 C         140.9690  138.7300  165.2009 C.ar    1  UNL1       -0.0008
     15 O         141.5066  142.1304  165.4949 O.3     1  UNL1       -0.4739
     16 CL        138.0340  142.7297  161.6763 Cl      1  UNL1       -0.0813
     17 C         138.5593  143.1167  163.0270 C.ar    1  UNL1        0.0712
     18 C         137.8737  144.1902  163.8190 C.ar    1  UNL1        0.0125
     19 C         138.3990  144.5772  165.1696 C.ar    1  UNL1        0.0040
     20 C         139.6099  143.8906  165.7282 C.ar    1  UNL1        0.0378
     21 C         140.2956  142.8170  164.9362 C.ar    1  UNL1        0.1501
     22 C         139.7703  142.4301  163.5856 C.ar    1  UNL1        0.1020
     23 CL        140.4560  141.3565  162.7935 Cl      1  UNL1       -0.0782
@<TRIPOS>BOND
     1    16    17    1
     2    17    18   ar
     3    18    19   ar
     4    19    20   ar
     5    20    21   ar
     6    21    15    1
     7    15     1    1
     8     1     9    1
     9     9    10   ar
    10    10    11   ar
    11    11    12   ar
    12    12    13   ar
    13    13    14   ar
    14     1     2    1
    15     2     3    1
    16     3     4    1
    17     4     5    1
    18     5     6    1
    19     6     7    1
    20    21    22   ar
    21    22    23    1
    22    22    17   ar
    23    14     9   ar
    24     7     2    1
    25     5     8    1
@<TRIPOS>MOLECULE
*****
 23 25 0 0 0
SMALL
GASTEIGER

@<TRIPOS>ATOM
      1 C         141.8278  141.9346  166.3105 C.3     1  UNL1        0.1881
      2 C         141.9340  142.3569  167.7460 C.3     1  UNL1        0.0472
      3 C         140.7494  142.9613  168.4396 C.3     1  UNL1        0.0211
      4 C         140.8557  143.3836  169.8749 C.3     1  UNL1        0.0687
      5 N         142.1466  143.2014  170.6167 N.3     1  UNL1       -0.2975
      6 C         143.3313  142.5970  169.9231 C.3     1  UNL1        0.0687
      7 C         143.2250  142.1747  168.4877 C.3     1  UNL1        0.0211
      8 H         141.9427  142.6089  171.4215 H       1  UNL1        0.1232
      9 C         143.0680  141.6216  165.5270 C.ar    1  UNL1        0.0172
     10 C         143.4600  140.1948  165.2814 C.ar    1  UNL1       -0.0008
     11 C         144.7003  139.8819  164.4980 C.ar    1  UNL1       -0.0002
     12 C         145.5486  140.9958  163.9601 C.ar    1  UNL1       -0.0000
     13 C         145.1567  142.4228  164.2057 C.ar    1  UNL1       -0.0002
     14 C         143.9164  142.7357  164.9891 C.ar    1  UNL1       -0.0008
     15 O         140.4813  141.8252  165.6586 O.3     1  UNL1       -0.4739
     16 CL        139.1421  137.5201  163.0753 Cl      1  UNL1       -0.0813
     17 C         139.1045  138.3506  164.3240 C.ar    1  UNL1        0.0712
     18 C         138.3595  137.8589  165.5295 C.ar    1  UNL1        0.0125
     19 C         138.3218  138.6893  166.7781 C.ar    1  UNL1        0.0040
     20 C         139.0291  140.0114  166.8211 C.ar    1  UNL1        0.0378
     21 C         139.7740  140.5030  165.6155 C.ar    1  UNL1        0.1501
     22 C         139.8117  139.6726  164.3670 C.ar    1  UNL1        0.1020
     23 CL        140.5567  140.1643  163.1614 Cl      1  UNL1       -0.0782
@<TRIPOS>BOND
     1    16    17    1
     2    17    18   ar
     3    18    19   ar
     4    19    20   ar
     5    20    21   ar
     6    21    15    1
     7    15     1    1
     8     1     9    1
     9     9    10   ar
    10    10    11   ar
    11    11    12   ar
    12    12    13   ar
    13    13    14   ar
    14     1     2    1
    15     2     3    1
    16     3     4    1
    17     4     5    1
    18     5     6    1
    19     6     7    1
    20    21    22   ar
    21    22    23    1
    22    22    17   ar
    23    14     9   ar
    24     7     2    1
    25     5     8    1
@<TRIPOS>MOLECULE
*****
 23 25 0 0 0
SMALL
GASTEIGER

@<TRIPOS>ATOM
      1 C         140.2270  141.0922  167.5235 C.3     1  UNL1        0.1881
      2 C         140.8843  140.9508  168.8645 C.3     1  UNL1        0.0472
      3 C         142.1867  140.2170  168.9877 C.3     1  UNL1        0.0211
      4 C         142.8438  140.0756  170.3286 C.3     1  UNL1        0.0687
      5 N         142.1986  140.6679  171.5463 N.3     1  UNL1       -0.2975
      6 C         140.8962  141.4017  171.4231 C.3     1  UNL1        0.0687
      7 C         140.2390  141.5431  170.0822 C.3     1  UNL1        0.0211
      8 H         142.8697  141.3243  171.9454 H       1  UNL1        0.1232
      9 C         139.7490  139.8740  166.7904 C.ar    1  UNL1        0.0172
     10 C         140.5850  139.2819  165.6947 C.ar    1  UNL1       -0.0008
     11 C         140.1069  138.0637  164.9616 C.ar    1  UNL1       -0.0002
     12 C         138.7930  137.4376  165.3241 C.ar    1  UNL1       -0.0000
     13 C         137.9569  138.0298  166.4198 C.ar    1  UNL1       -0.0002
     14 C         138.4349  139.2480  167.1529 C.ar    1  UNL1       -0.0008
     15 O         140.0478  142.4518  166.9158 O.3     1  UNL1       -0.4739
     16 CL        141.1983  145.5177  162.8813 Cl      1  UNL1       -0.0813
     17 C         141.6155  144.4949  163.8962 C.ar    1  UNL1        0.0712
     18 C         143.0251  143.9822  163.9085 C.ar    1  UNL1        0.0125
     19 C         143.4423  142.9594  164.9233 C.ar    1  UNL1        0.0040
     20 C         142.4499  142.4493  165.9257 C.ar    1  UNL1        0.0378
     21 C         141.0403  142.9620  165.9133 C.ar    1  UNL1        0.1501
     22 C         140.6231  143.9847  164.8985 C.ar    1  UNL1        0.1020
     23 CL        139.2134  144.4974  164.8862 Cl      1  UNL1       -0.0782
@<TRIPOS>BOND
     1    16    17    1
     2    17    18   ar
     3    18    19   ar
     4    19    20   ar
     5    20    21   ar
     6    21    15    1
     7    15     1    1
     8     1     9    1
     9     9    10   ar
    10    10    11   ar
    11    11    12   ar
    12    12    13   ar
    13    13    14   ar
    14     1     2    1
    15     2     3    1
    16     3     4    1
    17     4     5    1
    18     5     6    1
    19     6     7    1
    20    21    22   ar
    21    22    23    1
    22    22    17   ar
    23    14     9   ar
    24     7     2    1
    25     5     8    1
@<TRIPOS>MOLECULE
*****
 23 25 0 0 0
SMALL
GASTEIGER

@<TRIPOS>ATOM
      1 C         140.8042  142.6228  166.7167 C.3     1  UNL1        0.1881
      2 C         140.3761  142.1879  168.0870 C.3     1  UNL1        0.0472
      3 C         139.9584  140.7673  168.3267 C.3     1  UNL1        0.0211
      4 C         139.5303  140.3325  169.6969 C.3     1  UNL1        0.0687
      5 N         139.5199  141.3182  170.8275 N.3     1  UNL1       -0.2975
      6 C         139.9376  142.7387  170.5879 C.3     1  UNL1        0.0687
      7 C         140.3657  143.1736  169.2177 C.3     1  UNL1        0.0211
      8 H         140.1393  140.9466  171.5478 H       1  UNL1        0.1232
      9 C         139.7826  142.7997  165.6327 C.ar    1  UNL1        0.0172
     10 C         139.1643  144.1459  165.3974 C.ar    1  UNL1       -0.0008
     11 C         138.1427  144.3228  164.3134 C.ar    1  UNL1       -0.0002
     12 C         137.7394  143.1536  163.4647 C.ar    1  UNL1       -0.0000
     13 C         138.3578  141.8073  163.7001 C.ar    1  UNL1       -0.0002
     14 C         139.3793  141.6304  164.7841 C.ar    1  UNL1       -0.0008
     15 O         142.2538  142.8808  166.4305 O.3     1  UNL1       -0.4739
     16 CL        146.0089  141.6575  163.0537 Cl      1  UNL1       -0.0813
     17 C         144.9507  141.2346  164.0291 C.ar    1  UNL1        0.0712
     18 C         144.7119  139.7772  164.2916 C.ar    1  UNL1        0.0125
     19 C         143.6538  139.3543  165.2670 C.ar    1  UNL1        0.0040
     20 C         142.8344  140.3888  165.9800 C.ar    1  UNL1        0.0378
     21 C         143.0732  141.8462  165.7175 C.ar    1  UNL1        0.1501
     22 C         144.1314  142.2691  164.7421 C.ar    1  UNL1        0.1020
     23 CL        144.3701  143.7266  164.4796 Cl      1  UNL1       -0.0782
@<TRIPOS>BOND
     1    16    17    1
     2    17    18   ar
     3    18    19   ar
     4    19    20   ar
     5    20    21   ar
     6    21    15    1
     7    15     1    1
     8     1     9    1
     9     9    10   ar
    10    10    11   ar
    11    11    12   ar
    12    12    13   ar
    13    13    14   ar
    14     1     2    1
    15     2     3    1
    16     3     4    1
    17     4     5    1
    18     5     6    1
    19     6     7    1
    20    21    22   ar
    21    22    23    1
    22    22    17   ar
    23    14     9   ar
    24     7     2    1
    25     5     8    1
@<TRIPOS>MOLECULE
*****
 23 25 0 0 0
SMALL
GASTEIGER

@<TRIPOS>ATOM
      1 C         140.1746  142.1824  166.3999 C.3     1  UNL1        0.1881
      2 C         140.0715  143.2306  165.3318 C.3     1  UNL1        0.0472
      3 C         141.3159  143.8177  164.7346 C.3     1  UNL1        0.0211
      4 C         141.2128  144.8659  163.6666 C.3     1  UNL1        0.0687
      5 N         139.8653  145.3269  163.1958 N.3     1  UNL1       -0.2975
      6 C         138.6209  144.7398  163.7930 C.3     1  UNL1        0.0687
      7 C         138.7240  143.6917  164.8610 C.3     1  UNL1        0.0211
      8 H         139.8253  145.1441  162.1931 H       1  UNL1        0.1232
      9 C         141.0034  142.4377  167.6238 C.ar    1  UNL1        0.0172
     10 C         140.3980  143.1305  168.8084 C.ar    1  UNL1       -0.0008
     11 C         141.2267  143.3858  170.0323 C.ar    1  UNL1       -0.0002
     12 C         142.6610  142.9483  170.0716 C.ar    1  UNL1       -0.0000
     13 C         143.2665  142.2554  168.8869 C.ar    1  UNL1       -0.0002
     14 C         142.4377  142.0001  167.6630 C.ar    1  UNL1       -0.0008
     15 O         139.4489  140.8789  166.2440 O.3     1  UNL1       -0.4739
     16 CL        139.2887  137.8625  162.0160 Cl      1  UNL1       -0.0813
     17 C         139.9615  138.2780  163.2907 C.ar    1  UNL1        0.0712
     18 C         141.2272  137.6007  163.7259 C.ar    1  UNL1        0.0125
     19 C         141.9001  138.0162  165.0005 C.ar    1  UNL1        0.0040
     20 C         141.3073  139.1089  165.8398 C.ar    1  UNL1        0.0378
     21 C         140.0416  139.7862  165.4046 C.ar    1  UNL1        0.1501
     22 C         139.3688  139.3707  164.1300 C.ar    1  UNL1        0.1020
     23 CL        138.1031  140.0480  163.6948 Cl      1  UNL1       -0.0782
@<TRIPOS>BOND
     1    16    17    1
     2    17    18   ar
     3    18    19   ar
     4    19    20   ar
     5    20    21   ar
     6    21    15    1
     7    15     1    1
     8     1     9    1
     9     9    10   ar
    10    10    11   ar
    11    11    12   ar
    12    12    13   ar
    13    13    14   ar
    14     1     2    1
    15     2     3    1
    16     3     4    1
    17     4     5    1
    18     5     6    1
    19     6     7    1
    20    21    22   ar
    21    22    23    1
    22    22    17   ar
    23    14     9   ar
    24     7     2    1
    25     5     8    1
@<TRIPOS>MOLECULE
*****
 23 25 0 0 0
SMALL
GASTEIGER

@<TRIPOS>ATOM
      1 C         140.5432  141.7775  166.4177 C.3     1  UNL1        0.1881
      2 C         140.2347  141.7483  167.8854 C.3     1  UNL1        0.0472
      3 C         139.6573  140.5108  168.5060 C.3     1  UNL1        0.0211
      4 C         139.3488  140.4817  169.9736 C.3     1  UNL1        0.0687
      5 N         139.6177  141.6901  170.8206 N.3     1  UNL1       -0.2975
      6 C         140.1951  142.9276  170.2001 C.3     1  UNL1        0.0687
      7 C         140.5036  142.9567  168.7325 C.3     1  UNL1        0.0211
      8 H         140.2651  141.3982  171.5528 H       1  UNL1        0.1232
      9 C         139.6466  142.5275  165.4777 C.ar    1  UNL1        0.0172
     10 C         138.4750  141.8357  164.8464 C.ar    1  UNL1       -0.0008
     11 C         137.5784  142.5856  163.9064 C.ar    1  UNL1       -0.0002
     12 C         137.8535  144.0274  163.5975 C.ar    1  UNL1       -0.0000
     13 C         139.0252  144.7194  164.2288 C.ar    1  UNL1       -0.0002
     14 C         139.9218  143.9694  165.1688 C.ar    1  UNL1       -0.0008
     15 O         141.7482  141.0568  165.8902 O.3     1  UNL1       -0.4739
     16 CL        143.2855  137.9295  162.0357 Cl      1  UNL1       -0.0813
     17 C         142.3482  138.2331  163.1668 C.ar    1  UNL1        0.0712
     18 C         141.2423  137.2767  163.5017 C.ar    1  UNL1        0.0125
     19 C         140.3050  137.5803  164.6327 C.ar    1  UNL1        0.0040
     20 C         140.4736  138.8403  165.4288 C.ar    1  UNL1        0.0378
     21 C         141.5796  139.7967  165.0940 C.ar    1  UNL1        0.1501
     22 C         142.5169  139.4931  163.9629 C.ar    1  UNL1        0.1020
     23 CL        143.6228  140.4495  163.6280 Cl      1  UNL1       -0.0782
@<TRIPOS>BOND
     1    16    17    1
     2    17    18   ar
     3    18    19   ar
     4    19    20   ar
     5    20    21   ar
     6    21    15    1
     7    15     1    1
     8     1     9    1
     9     9    10   ar
    10    10    11   ar
    11    11    12   ar
    12    12    13   ar
    13    13    14   ar
    14     1     2    1
    15     2     3    1
    16     3     4    1
    17     4     5    1
    18     5     6    1
    19     6     7    1
    20    21    22   ar
    21    22    23    1
    22    22    17   ar
    23    14     9   ar
    24     7     2    1
    25     5     8    1
@<TRIPOS>MOLECULE
*****
 23 25 0 0 0
SMALL
GASTEIGER

@<TRIPOS>ATOM
      1 C         141.7119  141.8774  166.3192 C.3     1  UNL1        0.1881
      2 C         141.8159  142.3112  167.7514 C.3     1  UNL1        0.0472
      3 C         143.1045  142.1316  168.4977 C.3     1  UNL1        0.0211
      4 C         143.2085  142.5653  169.9298 C.3     1  UNL1        0.0687
      5 N         142.0238  143.1786  170.6156 N.3     1  UNL1       -0.2975
      6 C         140.7351  143.3582  169.8693 C.3     1  UNL1        0.0687
      7 C         140.6312  142.9245  168.4372 C.3     1  UNL1        0.0211
      8 H         142.3129  144.1045  170.9310 H       1  UNL1        0.1232
      9 C         142.9496  141.5131  165.5541 C.ar    1  UNL1        0.0172
     10 C         143.8037  142.5897  164.9529 C.ar    1  UNL1       -0.0008
     11 C         145.0415  142.2254  164.1879 C.ar    1  UNL1       -0.0002
     12 C         145.4250  140.7845  164.0240 C.ar    1  UNL1       -0.0000
     13 C         144.5708  139.7079  164.6252 C.ar    1  UNL1       -0.0002
     14 C         143.3331  140.0722  165.3902 C.ar    1  UNL1       -0.0008
     15 O         140.3702  141.8080  165.6521 O.3     1  UNL1       -0.4739
     16 CL        138.1208  137.1566  166.2044 Cl      1  UNL1       -0.0813
     17 C         138.7700  138.1904  165.3326 C.ar    1  UNL1        0.0712
     18 C         138.9436  137.9322  163.8652 C.ar    1  UNL1        0.0125
     19 C         139.5928  138.9659  162.9935 C.ar    1  UNL1        0.0040
     20 C         140.0683  140.2578  163.5891 C.ar    1  UNL1        0.0378
     21 C         139.8946  140.5160  165.0565 C.ar    1  UNL1        0.1501
     22 C         139.2455  139.4823  165.9282 C.ar    1  UNL1        0.1020
     23 CL        139.0718  139.7405  167.3956 Cl      1  UNL1       -0.0782
@<TRIPOS>BOND
     1    16    17    1
     2    17    18   ar
     3    18    19   ar
     4    19    20   ar
     5    20    21   ar
     6    21    15    1
     7    15     1    1
     8     1     9    1
     9     9    10   ar
    10    10    11   ar
    11    11    12   ar
    12    12    13   ar
    13    13    14   ar
    14     1     2    1
    15     2     3    1
    16     3     4    1
    17     4     5    1
    18     5     6    1
    19     6     7    1
    20    21    22   ar
    21    22    23    1
    22    22    17   ar
    23    14     9   ar
    24     7     2    1
    25     5     8    1
@<TRIPOS>MOLECULE
*****
 23 25 0 0 0
SMALL
GASTEIGER

@<TRIPOS>ATOM
      1 C         140.2621  141.8702  166.6344 C.3     1  UNL1        0.1881
      2 C         140.2596  141.7162  168.1265 C.3     1  UNL1        0.0472
      3 C         140.3527  142.9280  169.0057 C.3     1  UNL1        0.0211
      4 C         140.3502  142.7739  170.4977 C.3     1  UNL1        0.0687
      5 N         140.2547  141.4082  171.1106 N.3     1  UNL1       -0.2975
      6 C         140.1616  140.1965  170.2314 C.3     1  UNL1        0.0687
      7 C         140.1641  140.3505  168.7394 C.3     1  UNL1        0.0211
      8 H         139.4231  141.4080  171.7013 H       1  UNL1        0.1232
      9 C         141.4334  142.5082  165.9482 C.ar    1  UNL1        0.0172
     10 C         142.8296  142.1819  166.3887 C.ar    1  UNL1       -0.0008
     11 C         144.0010  142.8198  165.7025 C.ar    1  UNL1       -0.0002
     12 C         143.7762  143.7842  164.5758 C.ar    1  UNL1       -0.0000
     13 C         142.3799  144.1105  164.1353 C.ar    1  UNL1       -0.0002
     14 C         141.2085  143.4726  164.8215 C.ar    1  UNL1       -0.0008
     15 O         139.0932  141.3862  165.8286 O.3     1  UNL1       -0.4739
     16 CL        137.6719  138.5147  161.7377 Cl      1  UNL1       -0.0813
     17 C         138.4971  138.6900  162.9781 C.ar    1  UNL1        0.0712
     18 C         139.4368  137.6048  163.4134 C.ar    1  UNL1        0.0125
     19 C         140.2619  137.7801  164.6537 C.ar    1  UNL1        0.0040
     20 C         140.1474  139.0405  165.4587 C.ar    1  UNL1        0.0378
     21 C         139.2077  140.1257  165.0234 C.ar    1  UNL1        0.1501
     22 C         138.3826  139.9504  163.7832 C.ar    1  UNL1        0.1020
     23 CL        137.4429  141.0356  163.3479 Cl      1  UNL1       -0.0782
@<TRIPOS>BOND
     1    16    17    1
     2    17    18   ar
     3    18    19   ar
     4    19    20   ar
     5    20    21   ar
     6    21    15    1
     7    15     1    1
     8     1     9    1
     9     9    10   ar
    10    10    11   ar
    11    11    12   ar
    12    12    13   ar
    13    13    14   ar
    14     1     2    1
    15     2     3    1
    16     3     4    1
    17     4     5    1
    18     5     6    1
    19     6     7    1
    20    21    22   ar
    21    22    23    1
    22    22    17   ar
    23    14     9   ar
    24     7     2    1
    25     5     8    1
