@<TRIPOS>MOLECULE
*****
 22 24 0 0 0
SMALL
GASTEIGER

@<TRIPOS>ATOM
      1 N         138.9184  139.7177  164.6518 N.am    1  UNL1       -0.2606
      2 C         138.3003  138.9374  165.7739 C.3     1  UNL1        0.1169
      3 C         138.9120  139.4103  167.0593 C.3     1  UNL1        0.1212
      4 N         139.9080  140.4829  166.7316 N.am    1  UNL1       -0.2413
      5 C         139.9120  140.6729  165.2437 C.2     1  UNL1        0.3111
      6 O         140.7606  141.6470  164.4815 O.2     1  UNL1       -0.2520
      7 C         140.7520  141.2338  167.7185 C.ar    1  UNL1        0.0562
      8 C         142.1493  140.7746  168.0130 C.ar    1  UNL1        0.0150
      9 C         142.9932  141.5254  168.9999 C.ar    1  UNL1        0.0021
     10 C         142.4398  142.7355  169.6923 C.ar    1  UNL1        0.0115
     11 C         141.0425  143.1947  169.3979 C.ar    1  UNL1        0.0589
     12 CL        140.4891  144.4048  170.0904 Cl      1  UNL1       -0.0822
     13 C         140.1986  142.4438  168.4109 C.ar    1  UNL1        0.0263
     14 C         138.5989  139.5689  163.1938 C.3     1  UNL1        0.1123
     15 C         137.7162  140.5726  162.5131 C.3     1  UNL1        0.0940
     16 C         139.6387  146.1984  161.7047 C.3     1  UNL1        0.0897
     17 N         139.1581  144.7920  161.9068 N.3     1  UNL1       -0.2691
     18 C         139.6584  143.6932  161.0167 C.3     1  UNL1        0.0897
     19 C         139.1778  142.2868  161.2188 C.3     1  UNL1        0.0897
     20 N         138.1968  141.9791  162.3110 N.3     1  UNL1       -0.2688
     21 C         137.6965  143.0778  163.2012 C.3     1  UNL1        0.0897
     22 C         138.1772  144.4843  162.9990 C.3     1  UNL1        0.0897
@<TRIPOS>BOND
     1    16    17    1
     2    17    18    1
     3    18    19    1
     4    19    20    1
     5    20    15    1
     6    15    14    1
     7    14     1    1
     8     1     2    1
     9     2     3    1
    10     3     4    1
    11     4     7    1
    12     7     8   ar
    13     8     9   ar
    14     9    10   ar
    15    10    11   ar
    16    11    12    1
    17    11    13   ar
    18     4     5   am
    19     5     6    2
    20    20    21    1
    21    21    22    1
    22    22    17    1
    23     5     1   am
    24    13     7   ar
@<TRIPOS>MOLECULE
*****
 22 24 0 0 0
SMALL
GASTEIGER

@<TRIPOS>ATOM
      1 N         139.1143  143.7938  162.8340 N.am    1  UNL1       -0.2606
      2 C         138.3120  143.2085  161.7099 C.3     1  UNL1        0.1169
      3 C         138.0816  141.7573  162.0113 C.3     1  UNL1        0.1212
      4 N         138.7416  141.4456  163.3218 N.am    1  UNL1       -0.2413
      5 C         139.3799  142.7043  163.8303 C.2     1  UNL1        0.3111
      6 O         140.1487  142.8481  165.1101 O.2     1  UNL1       -0.2520
      7 C         138.7602  140.1099  164.0040 C.ar    1  UNL1        0.0562
      8 C         139.4145  138.9362  163.3373 C.ar    1  UNL1        0.0150
      9 C         139.4330  137.6005  164.0196 C.ar    1  UNL1        0.0021
     10 C         138.7973  137.4384  165.3685 C.ar    1  UNL1        0.0115
     11 C         138.1430  138.6121  166.0351 C.ar    1  UNL1        0.0589
     12 CL        137.5072  138.4500  167.3841 Cl      1  UNL1       -0.0822
     13 C         138.1244  139.9479  165.3529 C.ar    1  UNL1        0.0263
     14 C         139.5710  145.2185  162.9428 C.3     1  UNL1        0.1123
     15 C         140.9257  145.6128  162.4339 C.3     1  UNL1        0.0940
     16 C         145.6023  141.9302  163.1876 C.3     1  UNL1        0.0897
     17 N         144.4332  142.8508  162.9992 N.3     1  UNL1       -0.2691
     18 C         144.0248  143.7802  164.1034 C.3     1  UNL1        0.0897
     19 C         142.8557  144.7009  163.9150 C.3     1  UNL1        0.0897
     20 N         142.0949  144.6921  162.6223 N.3     1  UNL1       -0.2688
     21 C         142.5032  143.7627  161.5181 C.3     1  UNL1        0.0897
     22 C         143.6723  142.8421  161.7065 C.3     1  UNL1        0.0897
@<TRIPOS>BOND
     1    16    17    1
     2    17    18    1
     3    18    19    1
     4    19    20    1
     5    20    15    1
     6    15    14    1
     7    14     1    1
     8     1     2    1
     9     2     3    1
    10     3     4    1
    11     4     7    1
    12     7     8   ar
    13     8     9   ar
    14     9    10   ar
    15    10    11   ar
    16    11    12    1
    17    11    13   ar
    18     4     5   am
    19     5     6    2
    20    20    21    1
    21    21    22    1
    22    22    17    1
    23     5     1   am
    24    13     7   ar
@<TRIPOS>MOLECULE
*****
 22 24 0 0 0
SMALL
GASTEIGER

@<TRIPOS>ATOM
      1 N         139.5643  139.5780  163.0588 N.am    1  UNL1       -0.2606
      2 C         140.9745  140.0309  162.8219 C.3     1  UNL1        0.1169
      3 C         141.6467  140.1709  164.1556 C.3     1  UNL1        0.1212
      4 N         140.6519  139.8045  165.2167 N.am    1  UNL1       -0.2413
      5 C         139.3649  139.4381  164.5390 C.2     1  UNL1        0.3111
      6 O         138.1006  139.0073  165.2214 O.2     1  UNL1       -0.2520
      7 C         140.9005  139.8045  166.6960 C.ar    1  UNL1        0.0562
      8 C         142.2647  139.4779  167.2274 C.ar    1  UNL1        0.0150
      9 C         142.5132  139.4779  168.7066 C.ar    1  UNL1        0.0021
     10 C         141.3975  139.8045  169.6545 C.ar    1  UNL1        0.0115
     11 C         140.0333  140.1311  169.1232 C.ar    1  UNL1        0.0589
     12 CL        138.9176  140.4577  170.0712 Cl      1  UNL1       -0.0822
     13 C         139.7848  140.1311  167.6439 C.ar    1  UNL1        0.0263
     14 C         138.5343  139.3118  162.0014 C.3     1  UNL1        0.1123
     15 C         137.6979  140.4373  161.4689 C.3     1  UNL1        0.0940
     16 C         139.6842  146.0868  161.8390 C.3     1  UNL1        0.0897
     17 N         139.1876  144.6744  161.7465 N.3     1  UNL1       -0.2691
     18 C         138.2307  144.1470  162.7741 C.3     1  UNL1        0.0897
     19 C         137.7341  142.7346  162.6816 C.3     1  UNL1        0.0897
     20 N         138.1945  141.8497  161.5614 N.3     1  UNL1       -0.2688
     21 C         139.1514  142.3771  160.5337 C.3     1  UNL1        0.0897
     22 C         139.6479  143.7895  160.6263 C.3     1  UNL1        0.0897
@<TRIPOS>BOND
     1    16    17    1
     2    17    18    1
     3    18    19    1
     4    19    20    1
     5    20    15    1
     6    15    14    1
     7    14     1    1
     8     1     2    1
     9     2     3    1
    10     3     4    1
    11     4     7    1
    12     7     8   ar
    13     8     9   ar
    14     9    10   ar
    15    10    11   ar
    16    11    12    1
    17    11    13   ar
    18     4     5   am
    19     5     6    2
    20    20    21    1
    21    21    22    1
    22    22    17    1
    23     5     1   am
    24    13     7   ar
@<TRIPOS>MOLECULE
*****
 22 24 0 0 0
SMALL
GASTEIGER

@<TRIPOS>ATOM
      1 N         139.5972  143.9670  161.9875 N.am    1  UNL1       -0.2606
      2 C         138.7886  144.8556  162.8856 C.3     1  UNL1        0.1169
      3 C         138.4825  144.0918  164.1398 C.3     1  UNL1        0.1212
      4 N         139.1019  142.7312  164.0168 N.am    1  UNL1       -0.2413
      5 C         139.7908  142.6540  162.6866 C.2     1  UNL1        0.3111
      6 O         140.5415  141.4716  162.1498 O.2     1  UNL1       -0.2520
      7 C         139.0427  141.6394  165.0437 C.ar    1  UNL1        0.0562
      8 C         138.1864  140.4312  164.8052 C.ar    1  UNL1        0.0150
      9 C         138.1272  139.3394  165.8321 C.ar    1  UNL1        0.0021
     10 C         138.9244  139.4558  167.0974 C.ar    1  UNL1        0.0115
     11 C         139.7807  140.6641  167.3358 C.ar    1  UNL1        0.0589
     12 CL        140.5779  140.7806  168.6011 Cl      1  UNL1       -0.0822
     13 C         139.8399  141.7559  166.3089 C.ar    1  UNL1        0.0263
     14 C         140.1204  144.3280  160.6288 C.3     1  UNL1        0.1123
     15 C         141.5522  144.7430  160.4623 C.3     1  UNL1        0.0940
     16 C         145.8870  141.8053  163.3913 C.3     1  UNL1        0.0897
     17 N         144.8033  142.5397  162.6591 N.3     1  UNL1       -0.2691
     18 C         144.4122  142.1143  161.2749 C.3     1  UNL1        0.0897
     19 C         143.3285  142.8488  160.5426 C.3     1  UNL1        0.0897
     20 N         142.6359  144.0086  161.1946 N.3     1  UNL1       -0.2688
     21 C         143.0270  144.4339  162.5788 C.3     1  UNL1        0.0897
     22 C         144.1107  143.6995  163.3110 C.3     1  UNL1        0.0897
@<TRIPOS>BOND
     1    16    17    1
     2    17    18    1
     3    18    19    1
     4    19    20    1
     5    20    15    1
     6    15    14    1
     7    14     1    1
     8     1     2    1
     9     2     3    1
    10     3     4    1
    11     4     7    1
    12     7     8   ar
    13     8     9   ar
    14     9    10   ar
    15    10    11   ar
    16    11    12    1
    17    11    13   ar
    18     4     5   am
    19     5     6    2
    20    20    21    1
    21    21    22    1
    22    22    17    1
    23     5     1   am
    24    13     7   ar
@<TRIPOS>MOLECULE
*****
 22 24 0 0 0
SMALL
GASTEIGER

@<TRIPOS>ATOM
      1 N         138.2775  141.7176  164.0443 N.am    1  UNL1       -0.2606
      2 C         138.0519  140.2529  163.8125 C.3     1  UNL1        0.1169
      3 C         138.8112  139.4953  164.8611 C.3     1  UNL1        0.1212
      4 N         139.5060  140.4917  165.7410 N.am    1  UNL1       -0.2413
      5 C         139.1763  141.8652  165.2362 C.2     1  UNL1        0.3111
      6 O         139.6602  143.1591  165.8207 O.2     1  UNL1       -0.2520
      7 C         140.3777  140.1710  166.9189 C.ar    1  UNL1        0.0562
      8 C         141.8127  139.7886  166.7080 C.ar    1  UNL1        0.0150
      9 C         142.6843  139.4679  167.8859 C.ar    1  UNL1        0.0021
     10 C         142.1209  139.5297  169.2746 C.ar    1  UNL1        0.0115
     11 C         140.6859  139.9121  169.4855 C.ar    1  UNL1        0.0589
     12 CL        140.1225  139.9739  170.8744 Cl      1  UNL1       -0.0822
     13 C         139.8142  140.2328  168.3076 C.ar    1  UNL1        0.0263
     14 C         137.7050  142.8380  163.2277 C.3     1  UNL1        0.1123
     15 C         138.4699  143.3793  162.0564 C.3     1  UNL1        0.0940
     16 C         144.4478  143.8200  162.3222 C.3     1  UNL1        0.0897
     17 N         142.9534  143.7098  162.2558 N.3     1  UNL1       -0.2691
     18 C         142.3174  142.5195  161.6011 C.3     1  UNL1        0.0897
     19 C         140.8230  142.4093  161.5347 C.3     1  UNL1        0.0897
     20 N         139.9644  143.4895  162.1229 N.3     1  UNL1       -0.2688
     21 C         140.6003  144.6798  162.7775 C.3     1  UNL1        0.0897
     22 C         142.0948  144.7900  162.8440 C.3     1  UNL1        0.0897
@<TRIPOS>BOND
     1    16    17    1
     2    17    18    1
     3    18    19    1
     4    19    20    1
     5    20    15    1
     6    15    14    1
     7    14     1    1
     8     1     2    1
     9     2     3    1
    10     3     4    1
    11     4     7    1
    12     7     8   ar
    13     8     9   ar
    14     9    10   ar
    15    10    11   ar
    16    11    12    1
    17    11    13   ar
    18     4     5   am
    19     5     6    2
    20    20    21    1
    21    21    22    1
    22    22    17    1
    23     5     1   am
    24    13     7   ar
@<TRIPOS>MOLECULE
*****
 22 24 0 0 0
SMALL
GASTEIGER

@<TRIPOS>ATOM
      1 N         138.9524  143.9051  163.2929 N.am    1  UNL1       -0.2606
      2 C         137.7673  143.4221  162.5103 C.3     1  UNL1        0.1169
      3 C         137.5906  141.9594  162.7920 C.3     1  UNL1        0.1212
      4 N         138.6665  141.5384  163.7487 N.am    1  UNL1       -0.2413
      5 C         139.5082  142.7408  164.0583 C.2     1  UNL1        0.3111
      6 O         140.6967  142.7734  164.9726 O.2     1  UNL1       -0.2520
      7 C         138.8659  140.1574  164.2992 C.ar    1  UNL1        0.0562
      8 C         138.0927  139.7117  165.5049 C.ar    1  UNL1        0.0150
      9 C         138.2920  138.3307  166.0554 C.ar    1  UNL1        0.0021
     10 C         139.2645  137.3954  165.4002 C.ar    1  UNL1        0.0115
     11 C         140.0377  137.8410  164.1946 C.ar    1  UNL1        0.0589
     12 CL        141.0103  136.9055  163.5394 Cl      1  UNL1       -0.0822
     13 C         139.8384  139.2220  163.6441 C.ar    1  UNL1        0.0263
     14 C         139.4877  145.3062  163.3075 C.3     1  UNL1        0.1123
     15 C         140.2409  145.8337  162.1224 C.3     1  UNL1        0.0940
     16 C         144.4240  142.4438  159.4749 C.3     1  UNL1        0.0897
     17 N         143.3782  143.2913  160.1368 N.3     1  UNL1       -0.2691
     18 C         143.4656  143.5788  161.6063 C.3     1  UNL1        0.0897
     19 C         142.4198  144.4263  162.2682 C.3     1  UNL1        0.0897
     20 N         141.2867  144.9862  161.4606 N.3     1  UNL1       -0.2688
     21 C         141.1993  144.6987  159.9910 C.3     1  UNL1        0.0897
     22 C         142.2451  143.8512  159.3291 C.3     1  UNL1        0.0897
@<TRIPOS>BOND
     1    16    17    1
     2    17    18    1
     3    18    19    1
     4    19    20    1
     5    20    15    1
     6    15    14    1
     7    14     1    1
     8     1     2    1
     9     2     3    1
    10     3     4    1
    11     4     7    1
    12     7     8   ar
    13     8     9   ar
    14     9    10   ar
    15    10    11   ar
    16    11    12    1
    17    11    13   ar
    18     4     5   am
    19     5     6    2
    20    20    21    1
    21    21    22    1
    22    22    17    1
    23     5     1   am
    24    13     7   ar
@<TRIPOS>MOLECULE
*****
 22 24 0 0 0
SMALL
GASTEIGER

@<TRIPOS>ATOM
      1 N         144.5694  140.6567  164.3405 N.am    1  UNL1       -0.2606
      2 C         144.2417  139.2101  164.1169 C.3     1  UNL1        0.1169
      3 C         143.1880  138.8149  165.1086 C.3     1  UNL1        0.1212
      4 N         142.8644  140.0172  165.9451 N.am    1  UNL1       -0.2413
      5 C         143.7181  141.1556  165.4704 C.2     1  UNL1        0.3111
      6 O         143.7203  142.5481  166.0277 O.2     1  UNL1       -0.2520
      7 C         141.8629  140.0717  167.0604 C.ar    1  UNL1        0.0562
      8 C         140.4048  139.8731  166.7696 C.ar    1  UNL1        0.0150
      9 C         139.4033  139.9276  167.8850 C.ar    1  UNL1        0.0021
     10 C         139.8599  140.1806  169.2912 C.ar    1  UNL1        0.0115
     11 C         141.3180  140.3792  169.5820 C.ar    1  UNL1        0.0589
     12 CL        141.7746  140.6322  170.9883 Cl      1  UNL1       -0.0822
     13 C         142.3195  140.3247  168.4667 C.ar    1  UNL1        0.0263
     14 C         145.5722  141.4630  163.5696 C.3     1  UNL1        0.1123
     15 C         145.1406  142.2395  162.3609 C.3     1  UNL1        0.0940
     16 C         140.0797  145.4587  162.5130 C.3     1  UNL1        0.0897
     17 N         141.3449  144.6539  162.4750 N.3     1  UNL1       -0.2691
     18 C         142.5842  145.1727  163.1420 C.3     1  UNL1        0.0897
     19 C         143.8494  144.3679  163.1040 C.3     1  UNL1        0.0897
     20 N         143.8754  143.0443  162.3990 N.3     1  UNL1       -0.2688
     21 C         142.6361  142.5254  161.7319 C.3     1  UNL1        0.0897
     22 C         141.3709  143.3302  161.7699 C.3     1  UNL1        0.0897
@<TRIPOS>BOND
     1    16    17    1
     2    17    18    1
     3    18    19    1
     4    19    20    1
     5    20    15    1
     6    15    14    1
     7    14     1    1
     8     1     2    1
     9     2     3    1
    10     3     4    1
    11     4     7    1
    12     7     8   ar
    13     8     9   ar
    14     9    10   ar
    15    10    11   ar
    16    11    12    1
    17    11    13   ar
    18     4     5   am
    19     5     6    2
    20    20    21    1
    21    21    22    1
    22    22    17    1
    23     5     1   am
    24    13     7   ar
@<TRIPOS>MOLECULE
*****
 22 24 0 0 0
SMALL
GASTEIGER

@<TRIPOS>ATOM
      1 N         139.5405  139.8153  165.0943 N.am    1  UNL1       -0.2606
      2 C         140.4155  140.7010  164.2577 C.3     1  UNL1        0.1169
      3 C         141.1265  141.6507  165.1756 C.3     1  UNL1        0.1212
      4 N         140.6909  141.3519  166.5795 N.am    1  UNL1       -0.2413
      5 C         139.7107  140.2176  166.5294 C.2     1  UNL1        0.3111
      6 O         139.0217  139.5950  167.7072 O.2     1  UNL1       -0.2520
      7 C         141.1542  142.0627  167.8165 C.ar    1  UNL1        0.0562
      8 C         140.2047  142.9396  168.5778 C.ar    1  UNL1        0.0150
      9 C         140.6679  143.6503  169.8148 C.ar    1  UNL1        0.0021
     10 C         142.0807  143.4843  170.2905 C.ar    1  UNL1        0.0115
     11 C         143.0303  142.6074  169.5293 C.ar    1  UNL1        0.0589
     12 CL        144.4432  142.4413  170.0050 Cl      1  UNL1       -0.0822
     13 C         142.5670  141.8966  168.2923 C.ar    1  UNL1        0.0263
     14 C         138.6514  138.7197  164.5853 C.3     1  UNL1        0.1123
     15 C         139.0552  137.9258  163.3784 C.3     1  UNL1        0.0940
     16 C         138.3223  140.2318  157.8880 C.3     1  UNL1        0.0897
     17 N         138.5055  139.6553  159.2606 N.3     1  UNL1       -0.2691
     18 C         139.6702  138.7544  159.5463 C.3     1  UNL1        0.0897
     19 C         139.8535  138.1779  160.9189 C.3     1  UNL1        0.0897
     20 N         138.8720  138.5023  162.0058 N.3     1  UNL1       -0.2688
     21 C         137.7073  139.4033  161.7201 C.3     1  UNL1        0.0897
     22 C         137.5241  139.9798  160.3475 C.3     1  UNL1        0.0897
@<TRIPOS>BOND
     1    16    17    1
     2    17    18    1
     3    18    19    1
     4    19    20    1
     5    20    15    1
     6    15    14    1
     7    14     1    1
     8     1     2    1
     9     2     3    1
    10     3     4    1
    11     4     7    1
    12     7     8   ar
    13     8     9   ar
    14     9    10   ar
    15    10    11   ar
    16    11    12    1
    17    11    13   ar
    18     4     5   am
    19     5     6    2
    20    20    21    1
    21    21    22    1
    22    22    17    1
    23     5     1   am
    24    13     7   ar
@<TRIPOS>MOLECULE
*****
 22 24 0 0 0
SMALL
GASTEIGER

@<TRIPOS>ATOM
      1 N         139.9867  138.4052  164.0798 N.am    1  UNL1       -0.2606
      2 C         141.4562  138.3690  163.7811 C.3     1  UNL1        0.1169
      3 C         142.1772  139.0254  164.9210 C.3     1  UNL1        0.1212
      4 N         141.1534  139.4673  165.9242 N.am    1  UNL1       -0.2413
      5 C         139.7995  139.0840  165.4044 C.2     1  UNL1        0.3111
      6 O         138.4887  139.3354  166.0887 O.2     1  UNL1       -0.2520
      7 C         141.4340  140.1692  167.2198 C.ar    1  UNL1        0.0562
      8 C         142.3930  139.5698  168.2052 C.ar    1  UNL1        0.0150
      9 C         142.6736  140.2717  169.5007 C.ar    1  UNL1        0.0021
     10 C         141.9952  141.5731  169.8109 C.ar    1  UNL1        0.0115
     11 C         141.0362  142.1725  168.8255 C.ar    1  UNL1        0.0589
     12 CL        140.3578  143.4739  169.1357 Cl      1  UNL1       -0.0822
     13 C         140.7556  141.4706  167.5299 C.ar    1  UNL1        0.0263
     14 C         138.8959  137.8587  163.2072 C.3     1  UNL1        0.1123
     15 C         138.1598  138.7680  162.2685 C.3     1  UNL1        0.0940
     16 C         138.9574  144.7055  162.6010 C.3     1  UNL1        0.0897
     17 N         138.7580  143.2211  162.5179 N.3     1  UNL1       -0.2691
     18 C         139.7096  142.3801  161.7198 C.3     1  UNL1        0.0897
     19 C         139.5102  140.8957  161.6367 C.3     1  UNL1        0.0897
     20 N         138.3592  140.2524  162.3516 N.3     1  UNL1       -0.2688
     21 C         137.4076  141.0934  163.1497 C.3     1  UNL1        0.0897
     22 C         137.6070  142.5778  163.2328 C.3     1  UNL1        0.0897
@<TRIPOS>BOND
     1    16    17    1
     2    17    18    1
     3    18    19    1
     4    19    20    1
     5    20    15    1
     6    15    14    1
     7    14     1    1
     8     1     2    1
     9     2     3    1
    10     3     4    1
    11     4     7    1
    12     7     8   ar
    13     8     9   ar
    14     9    10   ar
    15    10    11   ar
    16    11    12    1
    17    11    13   ar
    18     4     5   am
    19     5     6    2
    20    20    21    1
    21    21    22    1
    22    22    17    1
    23     5     1   am
    24    13     7   ar
