@<TRIPOS>MOLECULE
*****
 34 37 0 0 0
SMALL
GASTEIGER

@<TRIPOS>ATOM
      1 C         141.8838  144.8951  163.9688 C.3     1  UNL1        0.0033
      2 C         140.7967  143.9250  163.6123 C.3     1  UNL1        0.0080
      3 C         140.4379  142.8191  164.5602 C.3     1  UNL1        0.0177
      4 C         139.3508  141.8490  164.2037 C.3     1  UNL1        0.0721
      5 N         138.6225  141.9846  162.8995 N.3     1  UNL1       -0.2716
      6 C         138.9813  143.0904  161.9516 C.3     1  UNL1        0.0776
      7 C         140.0684  144.0607  162.3081 C.3     1  UNL1        0.0525
      8 C         140.4272  145.1665  161.3602 C.2     1  UNL1        0.0513
      9 O         139.5493  146.3781  161.2547 O.co2   1  UNL1       -0.5491
     10 O         141.6638  145.0606  160.5179 O.co2   1  UNL1       -0.5491
     11 C         137.5355  141.0145  162.5430 C.3     1  UNL1        0.0842
     12 C         137.7561  140.0084  161.4525 C.3     1  UNL1        0.0800
     13 S         137.9298  138.5582  161.7939 S.3     1  UNL1       -0.1058
     14 C         139.0390  138.1307  162.7089 C.ar    1  UNL1        0.0546
     15 C         138.9409  137.9665  164.1966 C.ar    1  UNL1        0.0132
     16 C         140.2822  137.5267  164.7039 C.ar    1  UNL1        0.0080
     17 C         141.2094  137.4192  163.5296 C.ar    1  UNL1        0.0359
     18 S         140.4410  137.7925  162.2966 S.2     1  UNL1       -0.0802
     19 C         143.3174  144.5488  163.6954 C.3     1  UNL1        0.0338
     20 C         144.0924  143.7283  164.6835 C.3     1  UNL1        0.1328
     21 O         144.8692  144.4043  165.7741 O.3     1  UNL1       -0.3801
     22 H         144.7646  145.3656  165.6974 H       1  UNL1        0.2108
     23 C         142.4401  141.2444  168.0525 C.ar    1  UNL1        0.1388
     24 C         142.4382  139.7479  167.9499 C.ar    1  UNL1        0.0384
     25 C         142.9870  139.0794  166.7244 C.ar    1  UNL1        0.0222
     26 C         143.5378  139.9073  165.6014 C.ar    1  UNL1        0.0813
     27 N         144.0866  139.2388  164.3759 N.ar    1  UNL1       -0.2439
     28 C         144.6374  140.0668  163.2530 C.ar    1  UNL1        0.0986
     29 C         144.6393  141.5633  163.3554 C.ar    1  UNL1        0.0187
     30 C         144.0905  142.2318  164.5809 C.ar    1  UNL1        0.0073
     31 C         143.5397  141.4038  165.7040 C.ar    1  UNL1        0.0190
     32 C         142.9908  142.0723  166.9295 C.ar    1  UNL1        0.0382
     33 C         142.7991  142.7078  170.1689 C.3     1  UNL1        0.2525
     34 O         141.8913  141.9129  169.2780 O.3     1  UNL1       -0.4714
@<TRIPOS>UNITY_ATOM_ATTR
9 1
charge -1
@<TRIPOS>BOND
     1    33    34    1
     2    34    23    1
     3    23    24   ar
     4    24    25   ar
     5    25    26   ar
     6    26    27   ar
     7    27    28   ar
     8    28    29   ar
     9    29    30   ar
    10    30    20    1
    11    20    21    1
    12    20    19    1
    13    19     1    1
    14     2     1    1
    15     2     3    1
    16     3     4    1
    17     4     5    1
    18     5    11    1
    19    11    12    1
    20    12    13    1
    21    13    14    1
    22    14    15   ar
    23    15    16   ar
    24    16    17   ar
    25    17    18   ar
    26     5     6    1
    27     6     7    1
    28     7     8    1
    29     8     9   ar
    30     8    10   ar
    31    30    31   ar
    32    31    32   ar
    33    32    23   ar
    34    31    26   ar
    35     7     2    1
    36    18    14   ar
    37    21    22    1
@<TRIPOS>MOLECULE
*****
 34 37 0 0 0
SMALL
GASTEIGER

@<TRIPOS>ATOM
      1 C         141.4303  137.3875  164.9176 C.3     1  UNL1        0.0033
      2 C         142.3833  138.4180  164.3886 C.3     1  UNL1        0.0080
      3 C         142.2232  138.9406  162.9916 C.3     1  UNL1        0.0177
      4 C         143.1762  139.9710  162.4626 C.3     1  UNL1        0.0721
      5 N         144.2893  140.4789  163.3303 N.3     1  UNL1       -0.2716
      6 C         144.4495  139.9563  164.7271 C.3     1  UNL1        0.0776
      7 C         143.4965  138.9258  165.2563 C.3     1  UNL1        0.0525
      8 C         143.6567  138.4032  166.6531 C.2     1  UNL1        0.0513
      9 O         144.5122  137.1981  166.9095 O.co2   1  UNL1       -0.5491
     10 O         142.9613  139.0857  167.7936 O.co2   1  UNL1       -0.5491
     11 C         145.2423  141.5093  162.8012 C.3     1  UNL1        0.0842
     12 C         144.7812  142.9217  162.5950 C.3     1  UNL1        0.0800
     13 S         143.7743  143.5257  163.5284 S.3     1  UNL1       -0.1058
     14 C         142.5119  144.1257  162.9837 C.ar    1  UNL1        0.0546
     15 C         141.8500  145.3802  163.4714 C.ar    1  UNL1        0.0132
     16 C         140.6189  145.6062  162.6448 C.ar    1  UNL1        0.0080
     17 C         140.5200  144.4913  161.6461 C.ar    1  UNL1        0.0359
     18 S         141.6900  143.5762  161.8556 S.2     1  UNL1       -0.0802
     19 C         140.0390  137.2985  164.3643 C.3     1  UNL1        0.0338
     20 C         138.9502  138.1614  164.9300 C.3     1  UNL1        0.1328
     21 O         138.1108  137.6601  166.0676 O.3     1  UNL1       -0.3801
     22 H         138.4009  136.7682  166.3150 H       1  UNL1        0.2108
     23 C         140.3509  141.8200  167.1441 C.ar    1  UNL1        0.1388
     24 C         140.1015  143.1840  166.5722 C.ar    1  UNL1        0.0384
     25 C         139.3852  143.3285  165.2622 C.ar    1  UNL1        0.0222
     26 C         138.9183  142.1090  164.5242 C.ar    1  UNL1        0.0813
     27 N         138.2019  142.2536  163.2142 N.ar    1  UNL1       -0.2439
     28 C         137.7350  141.0340  162.4762 C.ar    1  UNL1        0.0986
     29 C         137.9845  139.6699  163.0481 C.ar    1  UNL1        0.0187
     30 C         138.7008  139.5254  164.3581 C.ar    1  UNL1        0.0073
     31 C         139.1677  140.7450  165.0961 C.ar    1  UNL1        0.0190
     32 C         139.8840  140.6005  166.4061 C.ar    1  UNL1        0.0382
     33 C         140.3023  141.7663  169.7411 C.3     1  UNL1        0.2525
     34 O         141.0672  141.6755  168.4541 O.3     1  UNL1       -0.4714
@<TRIPOS>UNITY_ATOM_ATTR
9 1
charge -1
@<TRIPOS>BOND
     1    33    34    1
     2    34    23    1
     3    23    24   ar
     4    24    25   ar
     5    25    26   ar
     6    26    27   ar
     7    27    28   ar
     8    28    29   ar
     9    29    30   ar
    10    30    20    1
    11    20    21    1
    12    20    19    1
    13    19     1    1
    14     2     1    1
    15     2     3    1
    16     3     4    1
    17     4     5    1
    18     5    11    1
    19    11    12    1
    20    12    13    1
    21    13    14    1
    22    14    15   ar
    23    15    16   ar
    24    16    17   ar
    25    17    18   ar
    26     5     6    1
    27     6     7    1
    28     7     8    1
    29     8     9   ar
    30     8    10   ar
    31    30    31   ar
    32    31    32   ar
    33    32    23   ar
    34    31    26   ar
    35     7     2    1
    36    18    14   ar
    37    21    22    1
@<TRIPOS>MOLECULE
*****
 34 37 0 0 0
SMALL
GASTEIGER

@<TRIPOS>ATOM
      1 C         138.3553  144.4520  164.3983 C.3     1  UNL1        0.0033
      2 C         138.5043  143.7018  163.1080 C.3     1  UNL1        0.0080
      3 C         137.7042  142.4558  162.8680 C.3     1  UNL1        0.0177
      4 C         137.8532  141.7056  161.5777 C.3     1  UNL1        0.0721
      5 N         138.8024  142.2013  160.5273 N.3     1  UNL1       -0.2716
      6 C         139.6025  143.4472  160.7672 C.3     1  UNL1        0.0776
      7 C         139.4535  144.1974  162.0575 C.3     1  UNL1        0.0525
      8 C         140.2536  145.4433  162.2974 C.2     1  UNL1        0.0513
      9 O         139.7512  146.7652  161.7973 O.co2   1  UNL1       -0.5491
     10 O         141.5561  145.3673  163.0374 O.co2   1  UNL1       -0.5491
     11 C         138.9514  141.4511  159.2370 C.3     1  UNL1        0.0842
     12 C         139.9407  140.3284  159.1321 C.3     1  UNL1        0.0800
     13 S         139.5152  138.9229  159.4378 S.3     1  UNL1       -0.1058
     14 C         139.5375  138.4233  160.8521 C.ar    1  UNL1        0.0546
     15 C         138.3373  138.1217  161.6997 C.ar    1  UNL1        0.0132
     16 C         138.8220  137.6496  163.0384 C.ar    1  UNL1        0.0080
     17 C         140.3219  137.6594  163.0182 C.ar    1  UNL1        0.0359
     18 S         140.7641  138.1376  161.6668 S.2     1  UNL1       -0.0802
     19 C         139.2971  144.1841  165.5346 C.3     1  UNL1        0.0338
     20 C         140.1527  142.9521  165.5251 C.3     1  UNL1        0.1328
     21 O         141.4531  142.9479  164.7775 O.3     1  UNL1       -0.3801
     22 H         141.5888  143.8128  164.3598 H       1  UNL1        0.2108
     23 C         141.1155  142.4821  169.8957 C.ar    1  UNL1        0.1388
     24 C         140.6707  141.2544  170.6338 C.ar    1  UNL1        0.0384
     25 C         139.9051  140.1833  169.9151 C.ar    1  UNL1        0.0222
     26 C         139.5842  140.3400  168.4582 C.ar    1  UNL1        0.0813
     27 N         138.8185  139.2689  167.7395 N.ar    1  UNL1       -0.2439
     28 C         138.4976  139.4255  166.2827 C.ar    1  UNL1        0.0986
     29 C         138.9424  140.6533  165.5445 C.ar    1  UNL1        0.0187
     30 C         139.7080  141.7244  166.2632 C.ar    1  UNL1        0.0073
     31 C         140.0289  141.5677  167.7201 C.ar    1  UNL1        0.0190
     32 C         140.7946  142.6388  168.4389 C.ar    1  UNL1        0.0382
     33 C         143.3692  143.4391  170.7646 C.3     1  UNL1        0.2525
     34 O         141.8811  143.5532  170.6144 O.3     1  UNL1       -0.4714
@<TRIPOS>UNITY_ATOM_ATTR
9 1
charge -1
@<TRIPOS>BOND
     1    33    34    1
     2    34    23    1
     3    23    24   ar
     4    24    25   ar
     5    25    26   ar
     6    26    27   ar
     7    27    28   ar
     8    28    29   ar
     9    29    30   ar
    10    30    20    1
    11    20    21    1
    12    20    19    1
    13    19     1    1
    14     2     1    1
    15     2     3    1
    16     3     4    1
    17     4     5    1
    18     5    11    1
    19    11    12    1
    20    12    13    1
    21    13    14    1
    22    14    15   ar
    23    15    16   ar
    24    16    17   ar
    25    17    18   ar
    26     5     6    1
    27     6     7    1
    28     7     8    1
    29     8     9   ar
    30     8    10   ar
    31    30    31   ar
    32    31    32   ar
    33    32    23   ar
    34    31    26   ar
    35     7     2    1
    36    18    14   ar
    37    21    22    1
@<TRIPOS>MOLECULE
*****
 34 37 0 0 0
SMALL
GASTEIGER

@<TRIPOS>ATOM
      1 C         140.5810  145.7966  162.5888 C.3     1  UNL1        0.0033
      2 C         141.7433  144.8485  162.5997 C.3     1  UNL1        0.0080
      3 C         142.4810  144.5808  163.8781 C.3     1  UNL1        0.0177
      4 C         143.6432  143.6327  163.8889 C.3     1  UNL1        0.0721
      5 N         144.0677  142.9520  162.6214 N.3     1  UNL1       -0.2716
      6 C         143.3301  143.2196  161.3431 C.3     1  UNL1        0.0776
      7 C         142.1678  144.1678  161.3322 C.3     1  UNL1        0.0525
      8 C         141.4301  144.4354  160.0538 C.2     1  UNL1        0.0513
      9 O         140.1782  143.6726  159.7366 O.co2   1  UNL1       -0.5491
     10 O         141.9444  145.4659  159.0927 O.co2   1  UNL1       -0.5491
     11 C         145.2300  142.0039  162.6323 C.3     1  UNL1        0.0842
     12 C         145.5737  141.2530  163.8846 C.3     1  UNL1        0.0800
     13 S         144.9682  139.9047  164.1407 S.3     1  UNL1       -0.1058
     14 C         143.6765  139.5247  163.4795 C.ar    1  UNL1        0.0546
     15 C         142.3192  140.0644  163.8207 C.ar    1  UNL1        0.0132
     16 C         141.3192  139.4115  162.9131 C.ar    1  UNL1        0.0080
     17 C         142.0585  138.4683  162.0109 C.ar    1  UNL1        0.0359
     18 S         143.5155  138.5383  162.3609 S.2     1  UNL1       -0.0802
     19 C         139.1893  145.2795  162.8020 C.3     1  UNL1        0.0338
     20 C         138.8294  144.6045  164.0923 C.3     1  UNL1        0.1328
     21 O         138.7485  145.4031  165.3595 O.3     1  UNL1       -0.3801
     22 H         138.9559  146.3316  165.1703 H       1  UNL1        0.2108
     23 C         140.5486  142.0403  167.3664 C.ar    1  UNL1        0.1388
     24 C         140.2697  140.5667  167.3896 C.ar    1  UNL1        0.0384
     25 C         139.4177  139.9478  166.3214 C.ar    1  UNL1        0.0222
     26 C         138.8447  140.8024  165.2300 C.ar    1  UNL1        0.0813
     27 N         137.9927  140.1835  164.1618 N.ar    1  UNL1       -0.2439
     28 C         137.4197  141.0382  163.0705 C.ar    1  UNL1        0.0986
     29 C         137.6985  142.5119  163.0473 C.ar    1  UNL1        0.0187
     30 C         138.5505  143.1308  164.1155 C.ar    1  UNL1        0.0073
     31 C         139.1236  142.2761  165.2069 C.ar    1  UNL1        0.0190
     32 C         139.9756  142.8950  166.2751 C.ar    1  UNL1        0.0382
     33 C         140.7601  143.4170  169.5596 C.3     1  UNL1        0.2525
     34 O         141.4006  142.6593  168.4346 O.3     1  UNL1       -0.4714
@<TRIPOS>UNITY_ATOM_ATTR
9 1
charge -1
@<TRIPOS>BOND
     1    33    34    1
     2    34    23    1
     3    23    24   ar
     4    24    25   ar
     5    25    26   ar
     6    26    27   ar
     7    27    28   ar
     8    28    29   ar
     9    29    30   ar
    10    30    20    1
    11    20    21    1
    12    20    19    1
    13    19     1    1
    14     2     1    1
    15     2     3    1
    16     3     4    1
    17     4     5    1
    18     5    11    1
    19    11    12    1
    20    12    13    1
    21    13    14    1
    22    14    15   ar
    23    15    16   ar
    24    16    17   ar
    25    17    18   ar
    26     5     6    1
    27     6     7    1
    28     7     8    1
    29     8     9   ar
    30     8    10   ar
    31    30    31   ar
    32    31    32   ar
    33    32    23   ar
    34    31    26   ar
    35     7     2    1
    36    18    14   ar
    37    21    22    1
@<TRIPOS>MOLECULE
*****
 34 37 0 0 0
SMALL
GASTEIGER

@<TRIPOS>ATOM
      1 C         144.8487  140.8830  164.3591 C.3     1  UNL1        0.0033
      2 C         143.8090  141.8442  163.8641 C.3     1  UNL1        0.0080
      3 C         143.1436  141.6128  162.5397 C.3     1  UNL1        0.0177
      4 C         142.1039  142.5740  162.0447 C.3     1  UNL1        0.0721
      5 N         141.7294  143.7665  162.8739 N.3     1  UNL1       -0.2716
      6 C         142.3947  143.9979  164.1982 C.3     1  UNL1        0.0776
      7 C         143.4345  143.0367  164.6933 C.3     1  UNL1        0.0525
      8 C         144.0998  143.2681  166.0176 C.2     1  UNL1        0.0513
      9 O         143.5760  142.5898  167.2487 O.co2   1  UNL1       -0.5491
     10 O         145.2888  144.1777  166.1109 O.co2   1  UNL1       -0.5491
     11 C         140.6897  144.7277  162.3789 C.3     1  UNL1        0.0842
     12 C         139.5291  145.0943  163.2557 C.3     1  UNL1        0.0800
     13 S         138.1694  144.5256  162.9769 S.3     1  UNL1       -0.1058
     14 C         138.0006  143.0484  162.7785 C.ar    1  UNL1        0.0546
     15 C         137.6446  142.0511  163.8410 C.ar    1  UNL1        0.0132
     16 C         137.5821  140.6955  163.2020 C.ar    1  UNL1        0.0080
     17 C         137.8993  140.8549  161.7446 C.ar    1  UNL1        0.0359
     18 S         138.1580  142.3091  161.4829 S.2     1  UNL1       -0.0802
     19 C         144.6393  139.4059  164.2033 C.3     1  UNL1        0.0338
     20 C         143.7862  138.6614  165.1872 C.3     1  UNL1        0.1328
     21 O         144.3944  138.1163  166.4454 O.3     1  UNL1       -0.3801
     22 H         145.3401  138.3310  166.4668 H       1  UNL1        0.2108
     23 C         140.7192  140.2238  168.0858 C.ar    1  UNL1        0.1388
     24 C         139.2580  140.0244  167.8115 C.ar    1  UNL1        0.0384
     25 C         138.8192  139.3043  166.5710 C.ar    1  UNL1        0.0222
     26 C         139.8416  138.7835  165.6048 C.ar    1  UNL1        0.0813
     27 N         139.4028  138.0633  164.3643 N.ar    1  UNL1       -0.2439
     28 C         140.4251  137.5425  163.3982 C.ar    1  UNL1        0.0986
     29 C         141.8863  137.7418  163.6724 C.ar    1  UNL1        0.0187
     30 C         142.3251  138.4620  164.9129 C.ar    1  UNL1        0.0073
     31 C         141.3027  138.9828  165.8791 C.ar    1  UNL1        0.0190
     32 C         141.7415  139.7030  167.1196 C.ar    1  UNL1        0.0382
     33 C         142.3450  140.4511  170.0994 C.3     1  UNL1        0.2525
     34 O         141.1580  140.9440  169.3262 O.3     1  UNL1       -0.4714
@<TRIPOS>UNITY_ATOM_ATTR
9 1
charge -1
@<TRIPOS>BOND
     1    33    34    1
     2    34    23    1
     3    23    24   ar
     4    24    25   ar
     5    25    26   ar
     6    26    27   ar
     7    27    28   ar
     8    28    29   ar
     9    29    30   ar
    10    30    20    1
    11    20    21    1
    12    20    19    1
    13    19     1    1
    14     2     1    1
    15     2     3    1
    16     3     4    1
    17     4     5    1
    18     5    11    1
    19    11    12    1
    20    12    13    1
    21    13    14    1
    22    14    15   ar
    23    15    16   ar
    24    16    17   ar
    25    17    18   ar
    26     5     6    1
    27     6     7    1
    28     7     8    1
    29     8     9   ar
    30     8    10   ar
    31    30    31   ar
    32    31    32   ar
    33    32    23   ar
    34    31    26   ar
    35     7     2    1
    36    18    14   ar
    37    21    22    1
@<TRIPOS>MOLECULE
*****
 34 37 0 0 0
SMALL
GASTEIGER

@<TRIPOS>ATOM
      1 C         137.7800  143.2855  163.0623 C.3     1  UNL1        0.0033
      2 C         138.5007  141.9939  162.8129 C.3     1  UNL1        0.0080
      3 C         138.4271  140.8868  163.8224 C.3     1  UNL1        0.0177
      4 C         139.1478  139.5952  163.5730 C.3     1  UNL1        0.0721
      5 N         139.9421  139.4106  162.3141 N.3     1  UNL1       -0.2716
      6 C         140.0157  140.5175  161.3045 C.3     1  UNL1        0.0776
      7 C         139.2950  141.8092  161.5539 C.3     1  UNL1        0.0525
      8 C         139.3686  142.9162  160.5444 C.2     1  UNL1        0.0513
      9 O         140.4575  143.9438  160.6363 O.co2   1  UNL1       -0.5491
     10 O         138.3535  142.9955  159.4430 O.co2   1  UNL1       -0.5491
     11 C         140.6628  138.1189  162.0646 C.3     1  UNL1        0.0842
     12 C         141.9575  137.8347  162.7669 C.3     1  UNL1        0.0800
     13 S         143.2602  138.1671  162.1017 S.3     1  UNL1       -0.1058
     14 C         144.0546  139.3544  162.5593 C.ar    1  UNL1        0.0546
     15 C         144.7857  139.4766  163.8633 C.ar    1  UNL1        0.0132
     16 C         145.4403  140.8256  163.9031 C.ar    1  UNL1        0.0080
     17 C         145.1137  141.5372  162.6236 C.ar    1  UNL1        0.0359
     18 S         144.2573  140.6279  161.7930 S.2     1  UNL1       -0.0802
     19 C         137.5227  143.7414  164.4679 C.3     1  UNL1        0.0338
     20 C         138.5787  144.5007  165.2153 C.3     1  UNL1        0.1328
     21 O         138.1841  145.5262  166.2363 O.3     1  UNL1       -0.3801
     22 H         137.2167  145.5738  166.2897 H       1  UNL1        0.2108
     23 C         140.7372  141.2630  167.4754 C.ar    1  UNL1        0.1388
     24 C         142.1877  140.9966  167.2018 C.ar    1  UNL1        0.0384
     25 C         142.9188  141.8095  166.1748 C.ar    1  UNL1        0.0222
     26 C         142.1993  142.8887  165.4214 C.ar    1  UNL1        0.0813
     27 N         142.9304  143.7016  164.3944 N.ar    1  UNL1       -0.2439
     28 C         142.2109  144.7808  163.6410 C.ar    1  UNL1        0.0986
     29 C         140.7603  145.0472  163.9146 C.ar    1  UNL1        0.0187
     30 C         140.0292  144.2343  164.9417 C.ar    1  UNL1        0.0073
     31 C         140.7488  143.1550  165.6950 C.ar    1  UNL1        0.0190
     32 C         140.0177  142.3422  166.7221 C.ar    1  UNL1        0.0382
     33 C         139.5880  141.0793  169.7983 C.3     1  UNL1        0.2525
     34 O         140.0061  140.4501  168.5025 O.3     1  UNL1       -0.4714
@<TRIPOS>UNITY_ATOM_ATTR
9 1
charge -1
@<TRIPOS>BOND
     1    33    34    1
     2    34    23    1
     3    23    24   ar
     4    24    25   ar
     5    25    26   ar
     6    26    27   ar
     7    27    28   ar
     8    28    29   ar
     9    29    30   ar
    10    30    20    1
    11    20    21    1
    12    20    19    1
    13    19     1    1
    14     2     1    1
    15     2     3    1
    16     3     4    1
    17     4     5    1
    18     5    11    1
    19    11    12    1
    20    12    13    1
    21    13    14    1
    22    14    15   ar
    23    15    16   ar
    24    16    17   ar
    25    17    18   ar
    26     5     6    1
    27     6     7    1
    28     7     8    1
    29     8     9   ar
    30     8    10   ar
    31    30    31   ar
    32    31    32   ar
    33    32    23   ar
    34    31    26   ar
    35     7     2    1
    36    18    14   ar
    37    21    22    1
@<TRIPOS>MOLECULE
*****
 34 37 0 0 0
SMALL
GASTEIGER

@<TRIPOS>ATOM
      1 C         139.0023  137.6155  164.1089 C.3     1  UNL1        0.0033
      2 C         140.3594  138.1532  163.7640 C.3     1  UNL1        0.0080
      3 C         141.4895  138.0202  164.7415 C.3     1  UNL1        0.0177
      4 C         142.8466  138.5579  164.3966 C.3     1  UNL1        0.0721
      5 N         143.0738  139.2286  163.0742 N.3     1  UNL1       -0.2716
      6 C         141.9438  139.3616  162.0968 C.3     1  UNL1        0.0776
      7 C         140.5866  138.8238  162.4417 C.3     1  UNL1        0.0525
      8 C         139.4566  138.9568  161.4642 C.2     1  UNL1        0.0513
      9 O         139.2764  137.9335  160.3824 O.co2   1  UNL1       -0.5491
     10 O         138.5068  140.1131  161.5686 O.co2   1  UNL1       -0.5491
     11 C         144.4309  139.7663  162.7293 C.3     1  UNL1        0.0842
     12 C         145.2483  140.4660  163.7745 C.3     1  UNL1        0.0800
     13 S         145.5458  141.9299  163.6382 S.3     1  UNL1       -0.1058
     14 C         144.4249  142.9267  163.6430 C.ar    1  UNL1        0.0546
     15 C         143.3304  143.0178  164.6646 C.ar    1  UNL1        0.0132
     16 C         142.4308  144.1548  164.2800 C.ar    1  UNL1        0.0080
     17 C         142.9693  144.7664  163.0206 C.ar    1  UNL1        0.0359
     18 S         144.2018  144.0073  162.6269 S.2     1  UNL1       -0.0802
     19 C         138.6126  137.4283  165.5452 C.3     1  UNL1        0.0338
     20 C         138.0498  138.5790  166.3258 C.3     1  UNL1        0.1328
     21 O         137.0115  138.3336  167.3801 O.3     1  UNL1       -0.3801
     22 H         136.8184  137.3843  167.4290 H       1  UNL1        0.2108
     23 C         141.0191  140.5270  169.0896 C.ar    1  UNL1        0.1388
     24 C         141.4947  141.9230  168.8158 C.ar    1  UNL1        0.0384
     25 C         140.9805  142.6697  167.6208 C.ar    1  UNL1        0.0222
     26 C         139.9908  142.0203  166.6995 C.ar    1  UNL1        0.0813
     27 N         139.4766  142.7670  165.5045 N.ar    1  UNL1       -0.2439
     28 C         138.4869  142.1177  164.5832 C.ar    1  UNL1        0.0986
     29 C         138.0113  140.7216  164.8570 C.ar    1  UNL1        0.0187
     30 C         138.5254  139.9750  166.0520 C.ar    1  UNL1        0.0073
     31 C         139.5152  140.6244  166.9733 C.ar    1  UNL1        0.0190
     32 C         140.0294  139.8777  168.1684 C.ar    1  UNL1        0.0382
     33 C         142.9903  139.8390  170.6358 C.3     1  UNL1        0.2525
     34 O         141.5332  139.7803  170.2847 O.3     1  UNL1       -0.4714
@<TRIPOS>UNITY_ATOM_ATTR
9 1
charge -1
@<TRIPOS>BOND
     1    33    34    1
     2    34    23    1
     3    23    24   ar
     4    24    25   ar
     5    25    26   ar
     6    26    27   ar
     7    27    28   ar
     8    28    29   ar
     9    29    30   ar
    10    30    20    1
    11    20    21    1
    12    20    19    1
    13    19     1    1
    14     2     1    1
    15     2     3    1
    16     3     4    1
    17     4     5    1
    18     5    11    1
    19    11    12    1
    20    12    13    1
    21    13    14    1
    22    14    15   ar
    23    15    16   ar
    24    16    17   ar
    25    17    18   ar
    26     5     6    1
    27     6     7    1
    28     7     8    1
    29     8     9   ar
    30     8    10   ar
    31    30    31   ar
    32    31    32   ar
    33    32    23   ar
    34    31    26   ar
    35     7     2    1
    36    18    14   ar
    37    21    22    1
@<TRIPOS>MOLECULE
*****
 34 37 0 0 0
SMALL
GASTEIGER

@<TRIPOS>ATOM
      1 C         138.0970  138.6219  162.1553 C.3     1  UNL1        0.0033
      2 C         138.0505  140.1128  162.3131 C.3     1  UNL1        0.0080
      3 C         137.7313  140.7161  163.6489 C.3     1  UNL1        0.0177
      4 C         137.6849  142.2070  163.8067 C.3     1  UNL1        0.0721
      5 N         137.9576  143.0947  162.6288 N.3     1  UNL1       -0.2716
      6 C         138.2767  142.4916  161.2930 C.3     1  UNL1        0.0776
      7 C         138.3232  141.0006  161.1352 C.3     1  UNL1        0.0525
      8 C         138.6424  140.3974  159.7994 C.2     1  UNL1        0.0513
      9 O         140.0674  140.1168  159.4245 O.co2   1  UNL1       -0.5491
     10 O         137.5366  140.0748  158.8386 O.co2   1  UNL1       -0.5491
     11 C         137.9111  144.5857  162.7866 C.3     1  UNL1        0.0842
     12 C         139.1795  145.3570  163.0016 C.3     1  UNL1        0.0800
     13 S         140.2654  144.7889  163.8665 S.3     1  UNL1       -0.1058
     14 C         141.6245  144.5264  163.2885 C.ar    1  UNL1        0.0546
     15 C         142.9242  145.0592  163.8147 C.ar    1  UNL1        0.0132
     16 C         144.0254  144.5471  162.9343 C.ar    1  UNL1        0.0080
     17 C         143.4063  143.6979  161.8639 C.ar    1  UNL1        0.0359
     18 S         141.9223  143.6851  162.0829 S.2     1  UNL1       -0.0802
     19 C         139.4183  137.9134  162.1103 C.3     1  UNL1        0.0338
     20 C         140.0969  137.5099  163.3857 C.3     1  UNL1        0.1328
     21 O         141.2097  136.5044  163.3577 O.3     1  UNL1       -0.3801
     22 H         141.3635  136.2178  162.4438 H       1  UNL1        0.2108
     23 C         142.4386  140.9041  165.1874 C.ar    1  UNL1        0.1388
     24 C         142.0044  141.5061  166.4908 C.ar    1  UNL1        0.0384
     25 C         140.7896  140.9767  167.1938 C.ar    1  UNL1        0.0222
     26 C         140.0091  139.8453  166.5933 C.ar    1  UNL1        0.0813
     27 N         138.7943  139.3159  167.2962 N.ar    1  UNL1       -0.2439
     28 C         138.0138  138.1845  166.6957 C.ar    1  UNL1        0.0986
     29 C         138.4480  137.5824  165.3921 C.ar    1  UNL1        0.0187
     30 C         139.6627  138.1119  164.6892 C.ar    1  UNL1        0.0073
     31 C         140.4433  139.2433  165.2898 C.ar    1  UNL1        0.0190
     32 C         141.6580  139.7727  164.5869 C.ar    1  UNL1        0.0382
     33 C         144.7958  140.5150  164.1666 C.3     1  UNL1        0.2525
     34 O         143.6533  141.4335  164.4844 O.3     1  UNL1       -0.4714
@<TRIPOS>UNITY_ATOM_ATTR
9 1
charge -1
@<TRIPOS>BOND
     1    33    34    1
     2    34    23    1
     3    23    24   ar
     4    24    25   ar
     5    25    26   ar
     6    26    27   ar
     7    27    28   ar
     8    28    29   ar
     9    29    30   ar
    10    30    20    1
    11    20    21    1
    12    20    19    1
    13    19     1    1
    14     2     1    1
    15     2     3    1
    16     3     4    1
    17     4     5    1
    18     5    11    1
    19    11    12    1
    20    12    13    1
    21    13    14    1
    22    14    15   ar
    23    15    16   ar
    24    16    17   ar
    25    17    18   ar
    26     5     6    1
    27     6     7    1
    28     7     8    1
    29     8     9   ar
    30     8    10   ar
    31    30    31   ar
    32    31    32   ar
    33    32    23   ar
    34    31    26   ar
    35     7     2    1
    36    18    14   ar
    37    21    22    1
@<TRIPOS>MOLECULE
*****
 34 37 0 0 0
SMALL
GASTEIGER

@<TRIPOS>ATOM
      1 C         142.2524  144.6028  164.0296 C.3     1  UNL1        0.0033
      2 C         141.5563  143.6782  163.0754 C.3     1  UNL1        0.0080
      3 C         142.2409  143.2509  161.8109 C.3     1  UNL1        0.0177
      4 C         141.5448  142.3263  160.8567 C.3     1  UNL1        0.0721
      5 N         140.1640  141.8291  161.1669 N.3     1  UNL1       -0.2716
      6 C         139.4794  142.2564  162.4312 C.3     1  UNL1        0.0776
      7 C         140.1755  143.1810  163.3855 C.3     1  UNL1        0.0525
      8 C         139.4909  143.6083  164.6499 C.2     1  UNL1        0.0513
      9 O         138.8690  144.9701  164.7426 O.co2   1  UNL1       -0.5491
     10 O         139.4281  142.6737  165.8215 O.co2   1  UNL1       -0.5491
     11 C         139.4679  140.9045  160.2127 C.3     1  UNL1        0.0842
     12 C         138.8545  139.6311  160.7150 C.3     1  UNL1        0.0800
     13 S         139.7256  138.4492  161.0222 S.3     1  UNL1       -0.1058
     14 C         139.9300  138.0175  162.4442 C.ar    1  UNL1        0.0546
     15 C         138.9143  138.0991  163.5450 C.ar    1  UNL1        0.0132
     16 C         139.5425  137.5605  164.7961 C.ar    1  UNL1        0.0080
     17 C         140.9465  137.1460  164.4685 C.ar    1  UNL1        0.0359
     18 S         141.1859  137.4285  163.0148 S.2     1  UNL1       -0.0802
     19 C         143.7504  144.6130  164.1057 C.3     1  UNL1        0.0338
     20 C         144.4576  143.7255  165.0868 C.3     1  UNL1        0.1328
     21 O         145.3146  144.3278  166.1605 O.3     1  UNL1       -0.3801
     22 H         145.3031  145.2943  166.0793 H       1  UNL1        0.2108
     23 C         141.8137  141.5443  168.0026 C.ar    1  UNL1        0.1388
     24 C         141.6639  140.0548  167.9099 C.ar    1  UNL1        0.0384
     25 C         142.3954  139.2922  166.8453 C.ar    1  UNL1        0.0222
     26 C         143.2767  140.0192  165.8734 C.ar    1  UNL1        0.0813
     27 N         144.0082  139.2567  164.8087 N.ar    1  UNL1       -0.2439
     28 C         144.8895  139.9837  163.8368 C.ar    1  UNL1        0.0986
     29 C         145.0393  141.4734  163.9294 C.ar    1  UNL1        0.0187
     30 C         144.3078  142.2359  164.9941 C.ar    1  UNL1        0.0073
     31 C         143.4265  141.5088  165.9661 C.ar    1  UNL1        0.0190
     32 C         142.6950  142.2714  167.0307 C.ar    1  UNL1        0.0382
     33 C         139.9347  141.6689  169.7925 C.3     1  UNL1        0.2525
     34 O         141.0822  142.3069  169.0673 O.3     1  UNL1       -0.4714
@<TRIPOS>UNITY_ATOM_ATTR
9 1
charge -1
@<TRIPOS>BOND
     1    33    34    1
     2    34    23    1
     3    23    24   ar
     4    24    25   ar
     5    25    26   ar
     6    26    27   ar
     7    27    28   ar
     8    28    29   ar
     9    29    30   ar
    10    30    20    1
    11    20    21    1
    12    20    19    1
    13    19     1    1
    14     2     1    1
    15     2     3    1
    16     3     4    1
    17     4     5    1
    18     5    11    1
    19    11    12    1
    20    12    13    1
    21    13    14    1
    22    14    15   ar
    23    15    16   ar
    24    16    17   ar
    25    17    18   ar
    26     5     6    1
    27     6     7    1
    28     7     8    1
    29     8     9   ar
    30     8    10   ar
    31    30    31   ar
    32    31    32   ar
    33    32    23   ar
    34    31    26   ar
    35     7     2    1
    36    18    14   ar
    37    21    22    1
