@<TRIPOS>MOLECULE
*****
 33 38 0 0 0
SMALL
GASTEIGER

@<TRIPOS>ATOM
      1 O         138.6315  141.8442  160.2724 O.2     1  UNL1       -0.2463
      2 C         138.7719  140.9010  161.4303 C.ar    1  UNL1        0.3316
      3 N         138.1750  141.0844  162.7942 N.ar    1  UNL1       -0.2774
      4 C         138.5681  139.9056  163.6345 C.ar    1  UNL1        0.0798
      5 C         138.2698  139.5448  165.0595 C.ar    1  UNL1        0.0188
      6 C         138.8113  138.2721  165.6400 C.ar    1  UNL1        0.0016
      7 C         139.6511  137.3603  164.7955 C.ar    1  UNL1        0.0016
      8 C         139.9494  137.7211  163.3704 C.ar    1  UNL1        0.0188
      9 C         139.4079  138.9938  162.7899 C.ar    1  UNL1        0.0796
     10 N         139.5339  139.6090  161.4277 N.ar    1  UNL1       -0.2817
     11 C         140.2892  139.0332  160.2667 C.3     1  UNL1        0.0926
     12 C         141.7552  138.7434  160.3952 C.3     1  UNL1        0.0401
     13 C         142.5106  138.1676  159.2342 C.3     1  UNL1        0.0740
     14 N         141.7998  137.8816  157.9446 N.3     1  UNL1       -0.2726
     15 C         140.3337  138.1714  157.8161 C.3     1  UNL1        0.0740
     16 C         139.5784  138.7472  158.9771 C.3     1  UNL1        0.0401
     17 C         142.5552  137.3058  156.7836 C.3     1  UNL1        0.0720
     18 C         142.5575  135.8239  156.5511 C.3     1  UNL1        0.0160
     19 C         143.2327  134.7975  157.4117 C.3     1  UNL1        0.0013
     20 C         143.4923  133.3288  157.5714 C.3     1  UNL1        0.0000
     21 C         142.8199  132.6132  156.4375 C.3     1  UNL1        0.0000
     22 C         142.1448  133.6397  155.5769 C.3     1  UNL1        0.0000
     23 C         142.9776  133.4475  156.8096 C.3     1  UNL1        0.0000
     24 C         141.8852  135.1083  155.4172 C.3     1  UNL1        0.0013
     25 C         141.3261  136.3381  154.7651 C.3     1  UNL1        0.0000
     26 C         141.0710  134.9882  154.1631 C.3     1  UNL1        0.0000
     27 C         137.3329  142.2430  163.2396 C.3     1  UNL1        0.1422
     28 C         137.9356  143.6129  163.3415 C.3     1  UNL1        0.1623
     29 O         137.5020  144.6952  162.3978 O.3     1  UNL1       -0.3799
     30 H         136.8316  144.3451  161.7904 H       1  UNL1        0.2105
     31 C         138.9720  143.9004  164.3871 C.3     1  UNL1        0.1683
     32 O         139.5541  145.2775  164.5073 O.3     1  UNL1       -0.3794
     33 H         140.0669  145.4825  163.7098 H       1  UNL1        0.2105
@<TRIPOS>BOND
     1     1     2    2
     2     2     3   ar
     3     3    27    1
     4    27    28    1
     5    28    29    1
     6    28    31    1
     7    31    32    1
     8     3     4   ar
     9     4     5   ar
    10     5     6   ar
    11     6     7   ar
    12     7     8   ar
    13     8     9   ar
    14     9    10   ar
    15    10    11    1
    16    11    12    1
    17    12    13    1
    18    13    14    1
    19    14    17    1
    20    18    17    1
    21    18    19    1
    22    19    20    1
    23    20    21    1
    24    22    21    1
    25    22    23    1
    26    22    24    1
    27    24    25    1
    28    25    26    1
    29    14    15    1
    30    15    16    1
    31    10     2   ar
    32    16    11    1
    33     9     4   ar
    34    24    18    1
    35    23    19    1
    36    26    24    1
    37    29    30    1
    38    32    33    1
@<TRIPOS>MOLECULE
*****
 33 38 0 0 0
SMALL
GASTEIGER

@<TRIPOS>ATOM
      1 O         143.8927  143.3686  160.6916 O.2     1  UNL1       -0.2463
      2 C         142.7441  143.5355  161.6418 C.ar    1  UNL1        0.3316
      3 N         142.7918  143.3318  163.1272 N.ar    1  UNL1       -0.2774
      4 C         141.4233  143.6058  163.6768 C.ar    1  UNL1        0.0798
      5 C         140.8754  143.5639  165.0725 C.ar    1  UNL1        0.0188
      6 C         139.4339  143.8949  165.3225 C.ar    1  UNL1        0.0016
      7 C         138.5404  144.2679  164.1769 C.ar    1  UNL1        0.0016
      8 C         139.0883  144.3099  162.7812 C.ar    1  UNL1        0.0188
      9 C         140.5298  143.9788  162.5312 C.ar    1  UNL1        0.0796
     10 N         141.3461  143.9353  161.2735 N.ar    1  UNL1       -0.2817
     11 C         140.8512  144.2385  159.8903 C.3     1  UNL1        0.0926
     12 C         141.3088  145.4810  159.1856 C.3     1  UNL1        0.0401
     13 C         140.8139  145.7842  157.8024 C.3     1  UNL1        0.0740
     14 N         139.8614  144.8448  157.1239 N.3     1  UNL1       -0.2726
     15 C         139.4038  143.6022  157.8286 C.3     1  UNL1        0.0740
     16 C         139.8987  143.2990  159.2118 C.3     1  UNL1        0.0401
     17 C         139.3665  145.1479  155.7407 C.3     1  UNL1        0.0720
     18 C         139.5501  146.5197  155.1624 C.3     1  UNL1        0.0160
     19 C         138.9034  147.7792  155.6578 C.3     1  UNL1        0.0013
     20 C         138.7897  149.2569  155.4268 C.3     1  UNL1        0.0000
     21 C         139.6523  149.6100  154.2515 C.3     1  UNL1        0.0000
     22 C         140.2990  148.3505  153.7561 C.3     1  UNL1        0.0000
     23 C         139.3662  148.9108  154.7886 C.3     1  UNL1        0.0000
     24 C         140.4127  146.8728  153.9871 C.3     1  UNL1        0.0013
     25 C         140.9004  145.4785  153.7260 C.3     1  UNL1        0.0000
     26 C         141.3632  146.6101  152.8569 C.3     1  UNL1        0.0000
     27 C         143.9965  142.9255  163.9231 C.3     1  UNL1        0.1422
     28 C         144.8412  141.7719  163.4692 C.3     1  UNL1        0.1623
     29 O         145.9432  141.9943  162.4762 O.3     1  UNL1       -0.3799
     30 H         145.9740  142.9326  162.2321 H       1  UNL1        0.2105
     31 C         144.5839  140.3961  164.0084 C.3     1  UNL1        0.1683
     32 O         144.9217  139.1912  163.1814 O.3     1  UNL1       -0.3794
     33 H         144.3518  139.1674  162.3969 H       1  UNL1        0.2105
@<TRIPOS>BOND
     1     1     2    2
     2     2     3   ar
     3     3    27    1
     4    27    28    1
     5    28    29    1
     6    28    31    1
     7    31    32    1
     8     3     4   ar
     9     4     5   ar
    10     5     6   ar
    11     6     7   ar
    12     7     8   ar
    13     8     9   ar
    14     9    10   ar
    15    10    11    1
    16    11    12    1
    17    12    13    1
    18    13    14    1
    19    14    17    1
    20    18    17    1
    21    18    19    1
    22    19    20    1
    23    20    21    1
    24    22    21    1
    25    22    23    1
    26    22    24    1
    27    24    25    1
    28    25    26    1
    29    14    15    1
    30    15    16    1
    31    10     2   ar
    32    16    11    1
    33     9     4   ar
    34    24    18    1
    35    23    19    1
    36    26    24    1
    37    29    30    1
    38    32    33    1
@<TRIPOS>MOLECULE
*****
 33 38 0 0 0
SMALL
GASTEIGER

@<TRIPOS>ATOM
      1 O         139.1216  142.1744  159.6359 O.2     1  UNL1       -0.2463
      2 C         139.0838  141.2542  160.8198 C.ar    1  UNL1        0.3316
      3 N         138.4490  141.5497  162.1463 N.ar    1  UNL1       -0.2774
      4 C         138.6471  140.3550  163.0315 C.ar    1  UNL1        0.0798
      5 C         138.2358  140.0750  164.4465 C.ar    1  UNL1        0.0188
      6 C         138.5817  138.7611  165.0821 C.ar    1  UNL1        0.0016
      7 C         139.3389  137.7272  164.3026 C.ar    1  UNL1        0.0016
      8 C         139.7502  138.0072  162.8875 C.ar    1  UNL1        0.0188
      9 C         139.4043  139.3211  162.2520 C.ar    1  UNL1        0.0796
     10 N         139.6742  139.8768  160.8851 N.ar    1  UNL1       -0.2817
     11 C         140.4060  139.1778  159.7779 C.3     1  UNL1        0.0926
     12 C         139.6554  138.6863  158.5760 C.3     1  UNL1        0.0401
     13 C         140.3872  137.9873  157.4688 C.3     1  UNL1        0.0740
     14 N         141.8697  137.7798  157.5636 N.3     1  UNL1       -0.2726
     15 C         142.6205  138.2714  158.7655 C.3     1  UNL1        0.0740
     16 C         141.8886  138.9704  159.8727 C.3     1  UNL1        0.0401
     17 C         142.6015  137.0809  156.4564 C.3     1  UNL1        0.0720
     18 C         142.6497  135.5821  156.4182 C.3     1  UNL1        0.0160
     19 C         143.3664  134.6979  157.3952 C.3     1  UNL1        0.0013
     20 C         143.6750  133.2712  157.7407 C.3     1  UNL1        0.0000
     21 C         143.0150  132.3937  156.7189 C.3     1  UNL1        0.0000
     22 C         142.2983  133.2779  155.7419 C.3     1  UNL1        0.0000
     23 C         143.1492  133.2738  156.9773 C.3     1  UNL1        0.0000
     24 C         141.9896  134.7045  155.3964 C.3     1  UNL1        0.0013
     25 C         141.3845  135.8211  154.5982 C.3     1  UNL1        0.0000
     26 C         141.1673  134.3970  154.1802 C.3     1  UNL1        0.0000
     27 C         137.7406  142.8174  162.5219 C.3     1  UNL1        0.1422
     28 C         138.4849  143.9117  163.2280 C.3     1  UNL1        0.1623
     29 O         138.3692  144.0581  164.7164 O.3     1  UNL1       -0.3799
     30 H         137.7795  143.3709  165.0640 H       1  UNL1        0.2105
     31 C         139.3450  144.8595  162.4458 C.3     1  UNL1        0.1683
     32 O         139.3312  144.8214  160.9464 O.3     1  UNL1       -0.3794
     33 H         139.7000  143.9778  160.6410 H       1  UNL1        0.2105
@<TRIPOS>BOND
     1     1     2    2
     2     2     3   ar
     3     3    27    1
     4    27    28    1
     5    28    29    1
     6    28    31    1
     7    31    32    1
     8     3     4   ar
     9     4     5   ar
    10     5     6   ar
    11     6     7   ar
    12     7     8   ar
    13     8     9   ar
    14     9    10   ar
    15    10    11    1
    16    11    12    1
    17    12    13    1
    18    13    14    1
    19    14    17    1
    20    18    17    1
    21    18    19    1
    22    19    20    1
    23    20    21    1
    24    22    21    1
    25    22    23    1
    26    22    24    1
    27    24    25    1
    28    25    26    1
    29    14    15    1
    30    15    16    1
    31    10     2   ar
    32    16    11    1
    33     9     4   ar
    34    24    18    1
    35    23    19    1
    36    26    24    1
    37    29    30    1
    38    32    33    1
@<TRIPOS>MOLECULE
*****
 33 38 0 0 0
SMALL
GASTEIGER

@<TRIPOS>ATOM
      1 O         142.0058  139.0205  158.6695 O.2     1  UNL1       -0.2463
      2 C         143.1351  139.7201  157.9728 C.ar    1  UNL1        0.3316
      3 N         143.6811  139.3798  156.6178 N.ar    1  UNL1       -0.2774
      4 C         144.8000  140.3322  156.3163 C.ar    1  UNL1        0.0798
      5 C         145.7052  140.4736  155.1286 C.ar    1  UNL1        0.0188
      6 C         146.7559  141.5439  155.1097 C.ar    1  UNL1        0.0016
      7 C         146.9015  142.4728  156.2784 C.ar    1  UNL1        0.0016
      8 C         145.9964  142.3314  157.4661 C.ar    1  UNL1        0.0188
      9 C         144.9457  141.2611  157.4851 C.ar    1  UNL1        0.0796
     10 N         143.9167  140.8828  158.5088 N.ar    1  UNL1       -0.2817
     11 C         143.7062  141.5500  159.8357 C.3     1  UNL1        0.0926
     12 C         144.0121  140.8103  161.1041 C.3     1  UNL1        0.0401
     13 C         143.8017  141.4775  162.4310 C.3     1  UNL1        0.0740
     14 N         143.2853  142.8846  162.4893 N.3     1  UNL1       -0.2726
     15 C         142.9794  143.6244  161.2209 C.3     1  UNL1        0.0740
     16 C         143.1898  142.9572  159.8940 C.3     1  UNL1        0.0401
     17 C         143.0749  143.5519  163.8162 C.3     1  UNL1        0.0720
     18 C         141.6864  143.7261  164.3562 C.3     1  UNL1        0.0160
     19 C         140.6055  144.5732  163.7528 C.3     1  UNL1        0.0013
     20 C         139.1838  145.0234  163.9147 C.3     1  UNL1        0.0000
     21 C         138.6324  144.3811  165.1530 C.3     1  UNL1        0.0000
     22 C         139.7133  143.5340  165.7564 C.3     1  UNL1        0.0000
     23 C         139.3860  144.4545  164.6181 C.3     1  UNL1        0.0000
     24 C         141.1350  143.0838  165.5945 C.3     1  UNL1        0.0013
     25 C         142.3858  142.3384  165.9549 C.3     1  UNL1        0.0000
     26 C         141.1664  142.2197  166.8202 C.3     1  UNL1        0.0000
     27 C         143.1936  138.2802  155.7215 C.3     1  UNL1        0.1422
     28 C         143.6449  136.8685  155.9528 C.3     1  UNL1        0.1623
     29 O         144.8400  136.3337  155.2210 O.3     1  UNL1       -0.3799
     30 H         145.2006  137.0240  154.6427 H       1  UNL1        0.2105
     31 C         142.9011  135.9916  156.9161 C.3     1  UNL1        0.1683
     32 O         143.4322  134.6303  157.2548 O.3     1  UNL1       -0.3794
     33 H         143.4031  134.0664  156.4661 H       1  UNL1        0.2105
@<TRIPOS>BOND
     1     1     2    2
     2     2     3   ar
     3     3    27    1
     4    27    28    1
     5    28    29    1
     6    28    31    1
     7    31    32    1
     8     3     4   ar
     9     4     5   ar
    10     5     6   ar
    11     6     7   ar
    12     7     8   ar
    13     8     9   ar
    14     9    10   ar
    15    10    11    1
    16    11    12    1
    17    12    13    1
    18    13    14    1
    19    14    17    1
    20    18    17    1
    21    18    19    1
    22    19    20    1
    23    20    21    1
    24    22    21    1
    25    22    23    1
    26    22    24    1
    27    24    25    1
    28    25    26    1
    29    14    15    1
    30    15    16    1
    31    10     2   ar
    32    16    11    1
    33     9     4   ar
    34    24    18    1
    35    23    19    1
    36    26    24    1
    37    29    30    1
    38    32    33    1
@<TRIPOS>MOLECULE
*****
 33 38 0 0 0
SMALL
GASTEIGER

@<TRIPOS>ATOM
      1 O         144.8162  142.5106  159.3437 O.2     1  UNL1       -0.2463
      2 C         144.2567  141.3135  158.6338 C.ar    1  UNL1        0.3316
      3 N         144.3144  141.0575  157.1570 N.ar    1  UNL1       -0.2774
      4 C         143.6346  139.7480  156.8865 C.ar    1  UNL1        0.0798
      5 C         143.3890  138.9880  155.6169 C.ar    1  UNL1        0.0188
      6 C         142.6656  137.6746  155.6571 C.ar    1  UNL1        0.0016
      7 C         142.1878  137.1212  156.9668 C.ar    1  UNL1        0.0016
      8 C         142.4335  137.8812  158.2365 C.ar    1  UNL1        0.0188
      9 C         143.1569  139.1946  158.1963 C.ar    1  UNL1        0.0796
     10 N         143.5414  140.1621  159.2762 N.ar    1  UNL1       -0.2817
     11 C         143.2599  140.0057  160.7412 C.3     1  UNL1        0.0926
     12 C         142.1939  140.8356  161.3930 C.3     1  UNL1        0.0401
     13 C         141.9125  140.6791  162.8580 C.3     1  UNL1        0.0740
     14 N         142.6970  139.6928  163.6713 N.3     1  UNL1       -0.2726
     15 C         143.7631  138.8628  163.0196 C.3     1  UNL1        0.0740
     16 C         144.0445  139.0192  161.5546 C.3     1  UNL1        0.0401
     17 C         142.4156  139.5364  165.1364 C.3     1  UNL1        0.0720
     18 C         141.0148  139.2804  165.6078 C.3     1  UNL1        0.0160
     19 C         140.0880  138.2230  165.0853 C.3     1  UNL1        0.0013
     20 C         138.7163  137.6332  165.2283 C.3     1  UNL1        0.0000
     21 C         137.9964  138.3897  166.3050 C.3     1  UNL1        0.0000
     22 C         138.9232  139.4471  166.8275 C.3     1  UNL1        0.0000
     23 C         138.7953  138.3260  165.8391 C.3     1  UNL1        0.0000
     24 C         140.2949  140.0369  166.6846 C.3     1  UNL1        0.0013
     25 C         141.4214  140.9772  166.9956 C.3     1  UNL1        0.0000
     26 C         140.1287  141.0802  167.7494 C.3     1  UNL1        0.0000
     27 C         144.9416  141.9537  156.1306 C.3     1  UNL1        0.1422
     28 C         146.3847  142.3435  156.2567 C.3     1  UNL1        0.1623
     29 O         146.8325  143.2013  157.4028 O.3     1  UNL1       -0.3799
     30 H         146.0708  143.4138  157.9645 H       1  UNL1        0.2105
     31 C         147.3798  141.8753  155.2366 C.3     1  UNL1        0.1683
     32 O         148.6848  141.2826  155.6790 O.3     1  UNL1       -0.3794
     33 H         149.2150  141.9629  156.1228 H       1  UNL1        0.2105
@<TRIPOS>BOND
     1     1     2    2
     2     2     3   ar
     3     3    27    1
     4    27    28    1
     5    28    29    1
     6    28    31    1
     7    31    32    1
     8     3     4   ar
     9     4     5   ar
    10     5     6   ar
    11     6     7   ar
    12     7     8   ar
    13     8     9   ar
    14     9    10   ar
    15    10    11    1
    16    11    12    1
    17    12    13    1
    18    13    14    1
    19    14    17    1
    20    18    17    1
    21    18    19    1
    22    19    20    1
    23    20    21    1
    24    22    21    1
    25    22    23    1
    26    22    24    1
    27    24    25    1
    28    25    26    1
    29    14    15    1
    30    15    16    1
    31    10     2   ar
    32    16    11    1
    33     9     4   ar
    34    24    18    1
    35    23    19    1
    36    26    24    1
    37    29    30    1
    38    32    33    1
@<TRIPOS>MOLECULE
*****
 33 38 0 0 0
SMALL
GASTEIGER

@<TRIPOS>ATOM
      1 O         142.3426  141.3008  159.9612 O.2     1  UNL1       -0.2463
      2 C         141.5899  142.0544  161.0173 C.ar    1  UNL1        0.3316
      3 N         141.5186  141.6984  162.4727 N.ar    1  UNL1       -0.2774
      4 C         140.6609  142.7203  163.1585 C.ar    1  UNL1        0.0798
      5 C         140.2385  142.8792  164.5889 C.ar    1  UNL1        0.0188
      6 C         139.3573  144.0256  164.9877 C.ar    1  UNL1        0.0016
      7 C         138.8985  145.0132  163.9561 C.ar    1  UNL1        0.0016
      8 C         139.3210  144.8544  162.5257 C.ar    1  UNL1        0.0188
      9 C         140.2022  143.7079  162.1268 C.ar    1  UNL1        0.0796
     10 N         140.7763  143.2963  160.8036 N.ar    1  UNL1       -0.2817
     11 C         140.5727  144.0027  159.4961 C.3     1  UNL1        0.0926
     12 C         141.4360  145.1748  159.1343 C.3     1  UNL1        0.0401
     13 C         141.2323  145.8812  157.8268 C.3     1  UNL1        0.0740
     14 N         140.1652  145.4155  156.8811 N.3     1  UNL1       -0.2726
     15 C         139.3018  144.2435  157.2428 C.3     1  UNL1        0.0740
     16 C         139.5055  143.5371  158.5503 C.3     1  UNL1        0.0401
     17 C         139.9615  146.1219  155.5736 C.3     1  UNL1        0.0720
     18 C         139.5247  147.5568  155.5564 C.3     1  UNL1        0.0160
     19 C         138.7802  148.2649  156.6493 C.3     1  UNL1        0.0013
     20 C         138.1785  149.5779  157.0542 C.3     1  UNL1        0.0000
     21 C         138.4094  150.5565  155.9411 C.3     1  UNL1        0.0000
     22 C         139.1539  149.8484  154.8483 C.3     1  UNL1        0.0000
     23 C         138.5510  149.6812  156.2117 C.3     1  UNL1        0.0000
     24 C         139.7556  148.5354  154.4433 C.3     1  UNL1        0.0013
     25 C         140.4836  147.5809  153.5439 C.3     1  UNL1        0.0000
     26 C         140.2544  148.9972  153.1062 C.3     1  UNL1        0.0000
     27 C         142.1874  140.5263  163.1275 C.3     1  UNL1        0.1422
     28 C         141.4210  139.2573  163.3570 C.3     1  UNL1        0.1623
     29 O         140.8416  138.9653  164.7094 O.3     1  UNL1       -0.3799
     30 H         141.0523  139.6928  165.3154 H       1  UNL1        0.2105
     31 C         141.2341  138.2805  162.2341 C.3     1  UNL1        0.1683
     32 O         141.5272  136.8253  162.4494 O.3     1  UNL1       -0.3794
     33 H         142.4763  136.7071  162.6111 H       1  UNL1        0.2105
@<TRIPOS>BOND
     1     1     2    2
     2     2     3   ar
     3     3    27    1
     4    27    28    1
     5    28    29    1
     6    28    31    1
     7    31    32    1
     8     3     4   ar
     9     4     5   ar
    10     5     6   ar
    11     6     7   ar
    12     7     8   ar
    13     8     9   ar
    14     9    10   ar
    15    10    11    1
    16    11    12    1
    17    12    13    1
    18    13    14    1
    19    14    17    1
    20    18    17    1
    21    18    19    1
    22    19    20    1
    23    20    21    1
    24    22    21    1
    25    22    23    1
    26    22    24    1
    27    24    25    1
    28    25    26    1
    29    14    15    1
    30    15    16    1
    31    10     2   ar
    32    16    11    1
    33     9     4   ar
    34    24    18    1
    35    23    19    1
    36    26    24    1
    37    29    30    1
    38    32    33    1
@<TRIPOS>MOLECULE
*****
 33 38 0 0 0
SMALL
GASTEIGER

@<TRIPOS>ATOM
      1 O         144.2702  139.8158  158.6237 O.2     1  UNL1       -0.2463
      2 C         143.5575  141.1340  158.6903 C.ar    1  UNL1        0.3316
      3 N         143.6474  142.2371  157.6779 N.ar    1  UNL1       -0.2774
      4 C         142.7752  143.3654  158.1430 C.ar    1  UNL1        0.0798
      5 C         142.4725  144.7098  157.5507 C.ar    1  UNL1        0.0188
      6 C         141.5408  145.6485  158.2584 C.ar    1  UNL1        0.0016
      7 C         140.9119  145.2427  159.5583 C.ar    1  UNL1        0.0016
      8 C         141.2146  143.8983  160.1505 C.ar    1  UNL1        0.0188
      9 C         142.1463  142.9596  159.4429 C.ar    1  UNL1        0.0796
     10 N         142.6298  141.5805  159.7811 N.ar    1  UNL1       -0.2817
     11 C         142.2518  140.7873  160.9968 C.3     1  UNL1        0.0926
     12 C         143.2707  140.5201  162.0647 C.3     1  UNL1        0.0401
     13 C         142.8927  139.7268  163.2804 C.3     1  UNL1        0.0740
     14 N         141.4958  139.2008  163.4282 N.3     1  UNL1       -0.2726
     15 C         140.4768  139.4680  162.3604 C.3     1  UNL1        0.0740
     16 C         140.8548  140.2612  161.1447 C.3     1  UNL1        0.0401
     17 C         141.1178  138.4075  164.6439 C.3     1  UNL1        0.0720
     18 C         140.6805  139.1127  165.8935 C.3     1  UNL1        0.0160
     19 C         141.5404  139.9823  166.7620 C.3     1  UNL1        0.0013
     20 C         141.5512  140.8268  168.0016 C.3     1  UNL1        0.0000
     21 C         140.1772  140.7862  168.6021 C.3     1  UNL1        0.0000
     22 C         139.3173  139.9165  167.7335 C.3     1  UNL1        0.0000
     23 C         140.6979  140.4792  167.8993 C.3     1  UNL1        0.0000
     24 C         139.3066  139.0720  166.4939 C.3     1  UNL1        0.0013
     25 C         138.7077  138.1715  165.4544 C.3     1  UNL1        0.0000
     26 C         137.8652  138.6684  166.5917 C.3     1  UNL1        0.0000
     27 C         144.4658  142.2157  156.4210 C.3     1  UNL1        0.1422
     28 C         145.8108  141.5515  156.4130 C.3     1  UNL1        0.1623
     29 O         145.9110  140.0625  156.2613 O.3     1  UNL1       -0.3799
     30 H         145.0211  139.6851  156.1809 H       1  UNL1        0.2105
     31 C         147.0555  142.3762  156.5566 C.3     1  UNL1        0.1683
     32 O         148.1191  142.3187  155.5005 O.3     1  UNL1       -0.3794
     33 H         148.5126  141.4322  155.4858 H       1  UNL1        0.2105
@<TRIPOS>BOND
     1     1     2    2
     2     2     3   ar
     3     3    27    1
     4    27    28    1
     5    28    29    1
     6    28    31    1
     7    31    32    1
     8     3     4   ar
     9     4     5   ar
    10     5     6   ar
    11     6     7   ar
    12     7     8   ar
    13     8     9   ar
    14     9    10   ar
    15    10    11    1
    16    11    12    1
    17    12    13    1
    18    13    14    1
    19    14    17    1
    20    18    17    1
    21    18    19    1
    22    19    20    1
    23    20    21    1
    24    22    21    1
    25    22    23    1
    26    22    24    1
    27    24    25    1
    28    25    26    1
    29    14    15    1
    30    15    16    1
    31    10     2   ar
    32    16    11    1
    33     9     4   ar
    34    24    18    1
    35    23    19    1
    36    26    24    1
    37    29    30    1
    38    32    33    1
@<TRIPOS>MOLECULE
*****
 33 38 0 0 0
SMALL
GASTEIGER

@<TRIPOS>ATOM
      1 O         142.7165  143.3568  159.8476 O.2     1  UNL1       -0.2463
      2 C         141.6588  143.5803  160.8875 C.ar    1  UNL1        0.3316
      3 N         141.8656  144.2052  162.2354 N.ar    1  UNL1       -0.2774
      4 C         140.5432  144.2293  162.9430 C.ar    1  UNL1        0.0798
      5 C         140.1393  144.7278  164.2988 C.ar    1  UNL1        0.0188
      6 C         138.7113  144.6164  164.7440 C.ar    1  UNL1        0.0016
      7 C         137.6871  144.0064  163.8335 C.ar    1  UNL1        0.0016
      8 C         138.0910  143.5079  162.4777 C.ar    1  UNL1        0.0188
      9 C         139.5191  143.6193  162.0324 C.ar    1  UNL1        0.0796
     10 N         140.2085  143.2182  160.7621 N.ar    1  UNL1       -0.2817
     11 C         139.5614  142.5690  159.5748 C.3     1  UNL1        0.0926
     12 C         139.3421  143.3556  158.3166 C.3     1  UNL1        0.0401
     13 C         138.6949  142.7064  157.1293 C.3     1  UNL1        0.0740
     14 N         138.2670  141.2705  157.2002 N.3     1  UNL1       -0.2726
     15 C         138.4862  140.4838  158.4583 C.3     1  UNL1        0.0740
     16 C         139.1334  141.1330  159.6457 C.3     1  UNL1        0.0401
     17 C         137.6198  140.6213  156.0128 C.3     1  UNL1        0.0720
     18 C         136.1455  140.7765  155.7841 C.3     1  UNL1        0.0160
     19 C         135.0556  140.2536  156.6722 C.3     1  UNL1        0.0013
     20 C         133.5682  140.1667  156.8452 C.3     1  UNL1        0.0000
     21 C         132.9250  140.8719  155.6881 C.3     1  UNL1        0.0000
     22 C         134.0149  141.3948  154.8000 C.3     1  UNL1        0.0000
     23 C         133.7388  140.6358  156.0640 C.3     1  UNL1        0.0000
     24 C         135.5023  141.4818  154.6270 C.3     1  UNL1        0.0013
     25 C         136.7826  141.8744  153.9513 C.3     1  UNL1        0.0000
     26 C         135.4658  142.2565  153.3431 C.3     1  UNL1        0.0000
     27 C         143.1664  144.7162  162.7800 C.3     1  UNL1        0.1422
     28 C         144.0495  143.8105  163.5863 C.3     1  UNL1        0.1623
     29 O         144.1250  143.9683  165.0761 O.3     1  UNL1       -0.3799
     30 H         143.5462  144.6953  165.3540 H       1  UNL1        0.2105
     31 C         144.8570  142.7471  162.9028 C.3     1  UNL1        0.1683
     32 O         145.1855  142.8759  161.4449 O.3     1  UNL1       -0.3794
     33 H         144.3694  142.8204  160.9235 H       1  UNL1        0.2105
@<TRIPOS>BOND
     1     1     2    2
     2     2     3   ar
     3     3    27    1
     4    27    28    1
     5    28    29    1
     6    28    31    1
     7    31    32    1
     8     3     4   ar
     9     4     5   ar
    10     5     6   ar
    11     6     7   ar
    12     7     8   ar
    13     8     9   ar
    14     9    10   ar
    15    10    11    1
    16    11    12    1
    17    12    13    1
    18    13    14    1
    19    14    17    1
    20    18    17    1
    21    18    19    1
    22    19    20    1
    23    20    21    1
    24    22    21    1
    25    22    23    1
    26    22    24    1
    27    24    25    1
    28    25    26    1
    29    14    15    1
    30    15    16    1
    31    10     2   ar
    32    16    11    1
    33     9     4   ar
    34    24    18    1
    35    23    19    1
    36    26    24    1
    37    29    30    1
    38    32    33    1
@<TRIPOS>MOLECULE
*****
 33 38 0 0 0
SMALL
GASTEIGER

@<TRIPOS>ATOM
      1 O         140.1812  137.1199  163.6342 O.2     1  UNL1       -0.2463
      2 C         139.6372  138.4989  163.4052 C.ar    1  UNL1        0.3316
      3 N         138.8729  139.3216  164.3997 N.ar    1  UNL1       -0.2774
      4 C         138.5252  140.6285  163.7506 C.ar    1  UNL1        0.0798
      5 C         137.7794  141.8302  164.2502 C.ar    1  UNL1        0.0188
      6 C         137.5829  143.0168  163.3540 C.ar    1  UNL1        0.0016
      7 C         138.1323  143.0018  161.9583 C.ar    1  UNL1        0.0016
      8 C         138.8782  141.8001  161.4588 C.ar    1  UNL1        0.0188
      9 C         139.0746  140.6135  162.3550 C.ar    1  UNL1        0.0796
     10 N         139.7618  139.2973  162.1415 N.ar    1  UNL1       -0.2817
     11 C         140.4525  138.8569  160.8849 C.3     1  UNL1        0.0926
     12 C         139.6911  138.7909  159.5943 C.3     1  UNL1        0.0401
     13 C         140.3817  138.3505  158.3376 C.3     1  UNL1        0.0740
     14 N         141.8338  137.9761  158.3716 N.3     1  UNL1       -0.2726
     15 C         142.5953  138.0422  159.6623 C.3     1  UNL1        0.0740
     16 C         141.9047  138.4826  160.9189 C.3     1  UNL1        0.0401
     17 C         142.5245  137.5358  157.1150 C.3     1  UNL1        0.0720
     18 C         142.4618  136.0990  156.6888 C.3     1  UNL1        0.0160
     19 C         143.1441  134.9477  157.3665 C.3     1  UNL1        0.0013
     20 C         143.3591  133.4641  157.3157 C.3     1  UNL1        0.0000
     21 C         142.6032  132.9263  156.1370 C.3     1  UNL1        0.0000
     22 C         141.9209  134.0775  155.4594 C.3     1  UNL1        0.0000
     23 C         142.8098  133.6984  156.6066 C.3     1  UNL1        0.0000
     24 C         141.7058  135.5611  155.5102 C.3     1  UNL1        0.0013
     25 C         141.1576  136.8826  155.0592 C.3     1  UNL1        0.0000
     26 C         140.8233  135.6332  154.2994 C.3     1  UNL1        0.0000
     27 C         138.5185  138.9098  165.7979 C.3     1  UNL1        0.1422
     28 C         139.2463  139.5104  166.9639 C.3     1  UNL1        0.1623
     29 O         138.6296  139.4770  168.3309 O.3     1  UNL1       -0.3799
     30 H         137.7673  139.0353  168.2858 H       1  UNL1        0.2105
     31 C         140.5909  140.1444  166.7630 C.3     1  UNL1        0.1683
     32 O         140.8569  141.5223  167.2926 O.3     1  UNL1       -0.3794
     33 H         140.3030  142.1630  166.8197 H       1  UNL1        0.2105
@<TRIPOS>BOND
     1     1     2    2
     2     2     3   ar
     3     3    27    1
     4    27    28    1
     5    28    29    1
     6    28    31    1
     7    31    32    1
     8     3     4   ar
     9     4     5   ar
    10     5     6   ar
    11     6     7   ar
    12     7     8   ar
    13     8     9   ar
    14     9    10   ar
    15    10    11    1
    16    11    12    1
    17    12    13    1
    18    13    14    1
    19    14    17    1
    20    18    17    1
    21    18    19    1
    22    19    20    1
    23    20    21    1
    24    22    21    1
    25    22    23    1
    26    22    24    1
    27    24    25    1
    28    25    26    1
    29    14    15    1
    30    15    16    1
    31    10     2   ar
    32    16    11    1
    33     9     4   ar
    34    24    18    1
    35    23    19    1
    36    26    24    1
    37    29    30    1
    38    32    33    1
