@<TRIPOS>MOLECULE
*****
 38 41 0 0 0
SMALL
GASTEIGER

@<TRIPOS>ATOM
      1 S         139.2103  139.9861  164.9325 S.O2    1  UNL1        0.0134
      2 O         137.9040  140.3270  164.9315 O.2     1  UNL1       -0.1683
      3 O         140.6466  139.5929  164.7517 O.2     1  UNL1       -0.1683
      4 C         139.4228  140.0808  166.4144 C.3     1  UNL1        0.1845
      5 C         140.0912  141.3805  166.0768 C.3     1  UNL1        0.0313
      6 C         140.5678  142.0026  167.3558 C.3     1  UNL1        0.0024
      7 C         140.1939  141.0873  168.4840 C.3     1  UNL1        0.0048
      8 C         139.7570  140.0776  169.5035 C.3     1  UNL1        0.0172
      9 C         140.0410  140.3094  170.9580 C.3     1  UNL1        0.0686
     10 N         140.7618  141.5508  171.3930 N.3     1  UNL1       -0.2975
     11 C         141.1987  142.5605  170.3734 C.3     1  UNL1        0.0686
     12 C         140.9147  142.3288  168.9189 C.3     1  UNL1        0.0172
     13 C         139.4863  139.8995  167.9021 C.3     1  UNL1        0.0314
     14 H         141.6019  141.2465  171.8848 H       1  UNL1        0.1232
     15 C         138.7100  138.7613  166.4422 C.2     1  UNL1        0.2644
     16 O         139.0138  137.6585  165.7252 O.2     1  UNL1       -0.2713
     17 N         137.5224  138.5690  167.3382 N.am    1  UNL1       -0.1956
     18 O         136.8097  137.2495  167.3660 O.3     1  UNL1       -0.2951
     19 H         137.2108  139.3089  167.9080 H       1  UNL1        0.1823
     20 H         137.2412  136.6359  166.7510 H       1  UNL1        0.2414
     21 C         138.5728  139.7022  160.4870 C.ar    1  UNL1        0.1454
     22 C         137.5013  140.2804  161.3629 C.ar    1  UNL1        0.0388
     23 C         137.7137  140.3751  162.8448 C.ar    1  UNL1        0.0215
     24 C         138.9978  139.8915  163.4507 C.ar    1  UNL1        0.1063
     25 C         140.0694  139.3132  162.5748 C.ar    1  UNL1        0.0215
     26 C         139.8569  139.2186  161.0930 C.ar    1  UNL1        0.0388
     27 O         138.3603  139.6076  159.0052 O.3     1  UNL1       -0.4535
     28 C         138.1452  143.3524  156.5191 C.ar    1  UNL1        0.0536
     29 C         137.1674  142.2394  156.2846 C.ar    1  UNL1        0.0076
     30 C         137.2391  140.9911  157.1133 C.ar    1  UNL1        0.0376
     31 C         138.2886  140.8559  158.1765 C.ar    1  UNL1        0.1453
     32 C         139.2664  141.9690  158.4110 C.ar    1  UNL1        0.0376
     33 C         139.1947  143.2172  157.5823 C.ar    1  UNL1        0.0076
     34 C         139.0762  146.8893  154.9786 C.3     1  UNL1        0.1109
     35 N         139.1478  145.6410  155.8072 N.am    1  UNL1       -0.2992
     36 C         138.0735  144.6006  155.6905 C.2     1  UNL1        0.2459
     37 O         136.9276  144.8087  154.7452 O.2     1  UNL1       -0.2701
     38 H         139.8999  145.5045  156.4276 H       1  UNL1        0.1498
@<TRIPOS>BOND
     1    34    35    1
     2    35    36   am
     3    36    37    2
     4    36    28    1
     5    28    29   ar
     6    29    30   ar
     7    30    31   ar
     8    31    27    1
     9    27    21    1
    10    21    22   ar
    11    22    23   ar
    12    23    24   ar
    13    24     1    1
    14     1     2    2
    15     1     3    2
    16     1     4    1
    17     4    15    1
    18    15    16    2
    19    15    17   am
    20    17    18    1
    21     4     5    1
    22     5     6    1
    23     6     7    1
    24     7     8    1
    25     8     9    1
    26     9    10    1
    27    10    11    1
    28    11    12    1
    29     7    13    1
    30    24    25   ar
    31    25    26   ar
    32    31    32   ar
    33    32    33   ar
    34    33    28   ar
    35    26    21   ar
    36    13     4    1
    37    12     7    1
    38    35    38    1
    39    17    19    1
    40    18    20    1
    41    10    14    1
@<TRIPOS>MOLECULE
*****
 38 41 0 0 0
SMALL
GASTEIGER

@<TRIPOS>ATOM
      1 S         141.7196  143.7170  159.4975 S.O2    1  UNL1        0.0134
      2 O         142.2873  144.6981  160.2307 O.2     1  UNL1       -0.1683
      3 O         141.1656  142.5096  158.8006 O.2     1  UNL1       -0.1683
      4 C         141.0553  144.6048  158.4873 C.3     1  UNL1        0.1845
      5 C         142.1926  144.1855  157.6036 C.3     1  UNL1        0.0313
      6 C         142.0225  144.8630  156.2762 C.3     1  UNL1        0.0024
      7 C         140.7800  145.7011  156.3394 C.3     1  UNL1        0.0048
      8 C         139.5209  146.4885  156.5503 C.3     1  UNL1        0.0172
      9 C         138.9725  147.3371  155.4416 C.3     1  UNL1        0.0686
     10 N         139.6832  147.3982  154.1221 N.3     1  UNL1       -0.2975
     11 C         140.9423  146.6108  153.9112 C.3     1  UNL1        0.0686
     12 C         141.4907  145.7622  155.0199 C.3     1  UNL1        0.0172
     13 C         140.1822  145.5415  157.7059 C.3     1  UNL1        0.0314
     14 H         139.9175  148.3775  153.9590 H       1  UNL1        0.1232
     15 C         140.0569  144.8385  159.5819 C.2     1  UNL1        0.2644
     16 O         139.2105  143.9328  160.1166 O.2     1  UNL1       -0.2713
     17 N         139.9257  146.1992  160.1996 N.am    1  UNL1       -0.1956
     18 O         138.9272  146.4328  161.2943 O.3     1  UNL1       -0.2951
     19 H         140.4950  146.9388  159.8864 H       1  UNL1        0.1823
     20 H         138.4528  145.6075  161.4807 H       1  UNL1        0.2414
     21 C         143.7124  141.0536  162.5281 C.ar    1  UNL1        0.1454
     22 C         144.3307  142.3713  162.1659 C.ar    1  UNL1        0.0388
     23 C         143.6664  143.2591  161.1557 C.ar    1  UNL1        0.0215
     24 C         142.3839  142.8292  160.5077 C.ar    1  UNL1        0.1063
     25 C         141.7655  141.5115  160.8698 C.ar    1  UNL1        0.0215
     26 C         142.4298  140.6237  161.8800 C.ar    1  UNL1        0.0388
     27 O         144.3767  140.1658  163.5383 O.3     1  UNL1       -0.4535
     28 C         142.7218  139.8760  167.7129 C.ar    1  UNL1        0.0536
     29 C         143.2226  138.6449  167.0175 C.ar    1  UNL1        0.0076
     30 C         143.7742  138.7415  165.6260 C.ar    1  UNL1        0.0376
     31 C         143.8250  140.0692  164.9299 C.ar    1  UNL1        0.1453
     32 C         143.3242  141.3003  165.6252 C.ar    1  UNL1        0.0376
     33 C         142.7726  141.2037  167.0168 C.ar    1  UNL1        0.0076
     34 C         140.1609  139.9361  170.7441 C.3     1  UNL1        0.1109
     35 N         140.7127  140.0326  169.3526 N.am    1  UNL1       -0.2992
     36 C         142.1701  139.7794  169.1044 C.2     1  UNL1        0.2459
     37 O         143.0759  139.4296  170.2478 O.2     1  UNL1       -0.2701
     38 H         140.1182  140.2622  168.6023 H       1  UNL1        0.1498
@<TRIPOS>BOND
     1    34    35    1
     2    35    36   am
     3    36    37    2
     4    36    28    1
     5    28    29   ar
     6    29    30   ar
     7    30    31   ar
     8    31    27    1
     9    27    21    1
    10    21    22   ar
    11    22    23   ar
    12    23    24   ar
    13    24     1    1
    14     1     2    2
    15     1     3    2
    16     1     4    1
    17     4    15    1
    18    15    16    2
    19    15    17   am
    20    17    18    1
    21     4     5    1
    22     5     6    1
    23     6     7    1
    24     7     8    1
    25     8     9    1
    26     9    10    1
    27    10    11    1
    28    11    12    1
    29     7    13    1
    30    24    25   ar
    31    25    26   ar
    32    31    32   ar
    33    32    33   ar
    34    33    28   ar
    35    26    21   ar
    36    13     4    1
    37    12     7    1
    38    35    38    1
    39    17    19    1
    40    18    20    1
    41    10    14    1
@<TRIPOS>MOLECULE
*****
 38 41 0 0 0
SMALL
GASTEIGER

@<TRIPOS>ATOM
      1 S         141.5648  139.3862  165.0125 S.O2    1  UNL1        0.0134
      2 O         141.2578  138.0719  164.9845 O.2     1  UNL1       -0.1683
      3 O         141.9656  140.8249  164.8719 O.2     1  UNL1       -0.1683
      4 C         141.1001  139.6526  166.4136 C.3     1  UNL1        0.1845
      5 C         142.5670  139.7227  166.7190 C.3     1  UNL1        0.0313
      6 C         142.7225  140.0062  168.1838 C.3     1  UNL1        0.0024
      7 C         141.3516  140.1113  168.7837 C.3     1  UNL1        0.0048
      8 C         139.9247  140.1882  169.2396 C.3     1  UNL1        0.0172
      9 C         139.6116  140.4635  170.6805 C.3     1  UNL1        0.0686
     10 N         140.7254  140.6618  171.6654 N.3     1  UNL1       -0.2975
     11 C         142.1523  140.5849  171.2095 C.3     1  UNL1        0.0686
     12 C         142.4654  140.3096  169.7686 C.3     1  UNL1        0.0172
     13 C         140.3489  139.8928  167.6896 C.3     1  UNL1        0.0314
     14 H         140.6087  139.9521  172.3887 H       1  UNL1        0.1232
     15 C         139.7303  139.5269  165.8154 C.2     1  UNL1        0.2644
     16 O         138.8839  138.4822  165.9361 O.2     1  UNL1       -0.2713
     17 N         139.1713  140.6406  164.9804 N.am    1  UNL1       -0.1956
     18 O         137.8015  140.5147  164.3822 O.3     1  UNL1       -0.2951
     19 H         139.7035  141.4542  164.8250 H       1  UNL1        0.1823
     20 H         137.4176  139.6592  164.6305 H       1  UNL1        0.2414
     21 C         142.9591  138.5869  160.8093 C.ar    1  UNL1        0.1454
     22 C         141.9676  137.6674  161.4583 C.ar    1  UNL1        0.0388
     23 C         141.5028  137.9338  162.8593 C.ar    1  UNL1        0.0215
     24 C         142.0296  139.1198  163.6115 C.ar    1  UNL1        0.1063
     25 C         143.0212  140.0394  162.9626 C.ar    1  UNL1        0.0215
     26 C         143.4859  139.7730  161.5615 C.ar    1  UNL1        0.0388
     27 O         143.4239  138.3205  159.4083 O.3     1  UNL1       -0.4535
     28 C         140.4253  137.4214  156.1755 C.ar    1  UNL1        0.0536
     29 C         141.6952  136.6279  156.2622 C.ar    1  UNL1        0.0076
     30 C         142.6947  136.9276  157.3398 C.ar    1  UNL1        0.0376
     31 C         142.4243  138.0208  158.3307 C.ar    1  UNL1        0.1453
     32 C         141.1543  138.8143  158.2440 C.ar    1  UNL1        0.0376
     33 C         140.1548  138.5146  157.1664 C.ar    1  UNL1        0.0076
     34 C         138.8948  136.4675  152.6403 C.3     1  UNL1        0.1109
     35 N         139.8943  136.7672  153.7179 N.am    1  UNL1       -0.2992
     36 C         139.4258  137.1218  155.0980 C.2     1  UNL1        0.2459
     37 O         137.9575  137.1767  155.4005 O.2     1  UNL1       -0.2701
     38 H         140.8579  136.7311  153.5193 H       1  UNL1        0.1498
@<TRIPOS>BOND
     1    34    35    1
     2    35    36   am
     3    36    37    2
     4    36    28    1
     5    28    29   ar
     6    29    30   ar
     7    30    31   ar
     8    31    27    1
     9    27    21    1
    10    21    22   ar
    11    22    23   ar
    12    23    24   ar
    13    24     1    1
    14     1     2    2
    15     1     3    2
    16     1     4    1
    17     4    15    1
    18    15    16    2
    19    15    17   am
    20    17    18    1
    21     4     5    1
    22     5     6    1
    23     6     7    1
    24     7     8    1
    25     8     9    1
    26     9    10    1
    27    10    11    1
    28    11    12    1
    29     7    13    1
    30    24    25   ar
    31    25    26   ar
    32    31    32   ar
    33    32    33   ar
    34    33    28   ar
    35    26    21   ar
    36    13     4    1
    37    12     7    1
    38    35    38    1
    39    17    19    1
    40    18    20    1
    41    10    14    1
@<TRIPOS>MOLECULE
*****
 38 41 0 0 0
SMALL
GASTEIGER

@<TRIPOS>ATOM
      1 S         140.5880  139.9644  164.3028 S.O2    1  UNL1        0.0134
      2 O         139.9073  138.8125  164.1235 O.2     1  UNL1       -0.1683
      3 O         141.3662  141.2467  164.3203 O.2     1  UNL1       -0.1683
      4 C         140.4555  140.0245  165.7958 C.3     1  UNL1        0.1845
      5 C         141.9275  139.7362  165.7804 C.3     1  UNL1        0.0313
      6 C         142.4029  139.6757  167.2018 C.3     1  UNL1        0.0024
      7 C         141.2246  139.9266  168.0957 C.3     1  UNL1        0.0048
      8 C         139.9607  140.1913  168.8588 C.3     1  UNL1        0.0172
      9 C         139.9822  140.2214  170.3583 C.3     1  UNL1        0.0686
     10 N         141.2677  139.9868  171.0948 N.3     1  UNL1       -0.2975
     11 C         142.5317  139.7221  170.3317 C.3     1  UNL1        0.0686
     12 C         142.5102  139.6920  168.8322 C.3     1  UNL1        0.0172
     13 C         140.0211  140.1422  167.2267 C.3     1  UNL1        0.0314
     14 H         141.1163  139.1815  171.7022 H       1  UNL1        0.1232
     15 C         139.0113  140.3002  165.4991 C.2     1  UNL1        0.2644
     16 O         137.9528  139.5296  165.8283 O.2     1  UNL1       -0.2713
     17 N         138.6218  141.5463  164.7606 N.am    1  UNL1       -0.1956
     18 O         137.1775  141.8219  164.4639 O.3     1  UNL1       -0.2951
     19 H         139.3142  142.1833  164.4705 H       1  UNL1        0.1823
     20 H         136.6320  141.1011  164.8155 H       1  UNL1        0.2414
     21 C         140.9853  139.7843  159.8241 C.ar    1  UNL1        0.1454
     22 C         140.2418  138.7060  160.5551 C.ar    1  UNL1        0.0388
     23 C         140.1093  138.7660  162.0480 C.ar    1  UNL1        0.0215
     24 C         140.7204  139.9044  162.8099 C.ar    1  UNL1        0.1063
     25 C         141.4640  140.9827  162.0790 C.ar    1  UNL1        0.0215
     26 C         141.5964  140.9227  160.5861 C.ar    1  UNL1        0.0388
     27 O         141.1178  139.7242  158.3312 O.3     1  UNL1       -0.4535
     28 C         141.9019  135.7867  156.2984 C.ar    1  UNL1        0.0536
     29 C         142.9125  136.3533  157.2511 C.ar    1  UNL1        0.0076
     30 C         142.6511  137.6658  157.9287 C.ar    1  UNL1        0.0376
     31 C         141.3791  138.4117  157.6536 C.ar    1  UNL1        0.1453
     32 C         140.3685  137.8451  156.7009 C.ar    1  UNL1        0.0376
     33 C         140.6299  136.5326  156.0233 C.ar    1  UNL1        0.0076
     34 C         141.2973  132.1995  154.7122 C.3     1  UNL1        0.1109
     35 N         141.0361  133.5120  155.3898 N.am    1  UNL1       -0.2992
     36 C         142.1632  134.4743  155.6209 C.2     1  UNL1        0.2459
     37 O         143.5518  134.1241  155.1742 O.2     1  UNL1       -0.2701
     38 H         140.1247  133.7418  155.6829 H       1  UNL1        0.1498
@<TRIPOS>BOND
     1    34    35    1
     2    35    36   am
     3    36    37    2
     4    36    28    1
     5    28    29   ar
     6    29    30   ar
     7    30    31   ar
     8    31    27    1
     9    27    21    1
    10    21    22   ar
    11    22    23   ar
    12    23    24   ar
    13    24     1    1
    14     1     2    2
    15     1     3    2
    16     1     4    1
    17     4    15    1
    18    15    16    2
    19    15    17   am
    20    17    18    1
    21     4     5    1
    22     5     6    1
    23     6     7    1
    24     7     8    1
    25     8     9    1
    26     9    10    1
    27    10    11    1
    28    11    12    1
    29     7    13    1
    30    24    25   ar
    31    25    26   ar
    32    31    32   ar
    33    32    33   ar
    34    33    28   ar
    35    26    21   ar
    36    13     4    1
    37    12     7    1
    38    35    38    1
    39    17    19    1
    40    18    20    1
    41    10    14    1
@<TRIPOS>MOLECULE
*****
 38 41 0 0 0
SMALL
GASTEIGER

@<TRIPOS>ATOM
      1 S         142.9254  140.2978  164.9175 S.O2    1  UNL1        0.0134
      2 O         144.2625  140.4285  164.7847 O.2     1  UNL1       -0.1683
      3 O         141.4428  140.0703  164.9015 O.2     1  UNL1       -0.1683
      4 C         142.8094  140.9592  166.2588 C.3     1  UNL1        0.1845
      5 C         142.6625  139.5543  166.7635 C.3     1  UNL1        0.0313
      6 C         142.4914  139.6122  168.2526 C.3     1  UNL1        0.0024
      7 C         142.5326  141.0530  168.6683 C.3     1  UNL1        0.0048
      8 C         142.5938  142.5283  168.9320 C.3     1  UNL1        0.0172
      9 C         142.4617  143.0457  170.3337 C.3     1  UNL1        0.0686
     10 N         142.2684  142.0877  171.4717 N.3     1  UNL1       -0.2975
     11 C         142.2072  140.6124  171.2079 C.3     1  UNL1        0.0686
     12 C         142.3393  140.0950  169.8062 C.3     1  UNL1        0.0172
     13 C         142.7292  141.8854  167.4360 C.3     1  UNL1        0.0314
     14 H         141.3910  142.3424  171.9251 H       1  UNL1        0.1232
     15 C         142.9806  142.2258  165.4738 C.2     1  UNL1        0.2644
     16 O         142.1282  142.7368  164.5601 O.2     1  UNL1       -0.2713
     17 N         144.2048  143.0701  165.6697 N.am    1  UNL1       -0.1956
     18 O         144.3759  144.3367  164.8846 O.3     1  UNL1       -0.2951
     19 H         144.8961  142.7929  166.3136 H       1  UNL1        0.1823
     20 H         143.6111  144.4612  164.3011 H       1  UNL1        0.2414
     21 C         143.2735  138.3135  160.8937 C.ar    1  UNL1        0.1454
     22 C         142.2877  137.7996  161.9006 C.ar    1  UNL1        0.0388
     23 C         142.1716  138.4611  163.2418 C.ar    1  UNL1        0.0215
     24 C         143.0415  139.6364  163.5762 C.ar    1  UNL1        0.1063
     25 C         144.0274  140.1503  162.5694 C.ar    1  UNL1        0.0215
     26 C         144.1434  139.4889  161.2281 C.ar    1  UNL1        0.0388
     27 O         143.3896  137.6521  159.5524 O.3     1  UNL1       -0.4535
     28 C         140.2109  138.3111  156.4360 C.ar    1  UNL1        0.0536
     29 C         141.2731  137.2750  156.2164 C.ar    1  UNL1        0.0076
     30 C         142.3326  137.0554  157.2552 C.ar    1  UNL1        0.0376
     31 C         142.3300  137.8718  158.5136 C.ar    1  UNL1        0.1453
     32 C         141.2678  138.9079  158.7331 C.ar    1  UNL1        0.0376
     33 C         140.2082  139.1276  157.6943 C.ar    1  UNL1        0.0076
     34 C         136.9830  137.7534  154.1955 C.3     1  UNL1        0.1109
     35 N         138.0426  137.5338  155.2342 N.am    1  UNL1       -0.2992
     36 C         139.1513  138.5309  155.3973 C.2     1  UNL1        0.2459
     37 O         139.2004  139.7477  154.5214 O.2     1  UNL1       -0.2701
     38 H         138.0104  136.7351  155.8090 H       1  UNL1        0.1498
@<TRIPOS>BOND
     1    34    35    1
     2    35    36   am
     3    36    37    2
     4    36    28    1
     5    28    29   ar
     6    29    30   ar
     7    30    31   ar
     8    31    27    1
     9    27    21    1
    10    21    22   ar
    11    22    23   ar
    12    23    24   ar
    13    24     1    1
    14     1     2    2
    15     1     3    2
    16     1     4    1
    17     4    15    1
    18    15    16    2
    19    15    17   am
    20    17    18    1
    21     4     5    1
    22     5     6    1
    23     6     7    1
    24     7     8    1
    25     8     9    1
    26     9    10    1
    27    10    11    1
    28    11    12    1
    29     7    13    1
    30    24    25   ar
    31    25    26   ar
    32    31    32   ar
    33    32    33   ar
    34    33    28   ar
    35    26    21   ar
    36    13     4    1
    37    12     7    1
    38    35    38    1
    39    17    19    1
    40    18    20    1
    41    10    14    1
@<TRIPOS>MOLECULE
*****
 38 41 0 0 0
SMALL
GASTEIGER

@<TRIPOS>ATOM
      1 S         140.5984  138.8818  162.2770 S.O2    1  UNL1        0.0134
      2 O         140.5925  140.1639  161.8544 O.2     1  UNL1       -0.1683
      3 O         140.6346  137.4114  162.5718 O.2     1  UNL1       -0.1683
      4 C         140.3571  139.1670  163.7297 C.3     1  UNL1        0.1845
      5 C         141.8300  138.9158  163.8619 C.3     1  UNL1        0.0313
      6 C         142.2016  139.0858  165.3052 C.3     1  UNL1        0.0024
      7 C         140.9583  139.4422  166.0651 C.3     1  UNL1        0.0048
      8 C         139.6388  139.7900  166.6879 C.3     1  UNL1        0.0172
      9 C         139.5510  140.0504  168.1625 C.3     1  UNL1        0.0686
     10 N         140.7826  139.9630  169.0142 N.3     1  UNL1       -0.2975
     11 C         142.1021  139.6152  168.3914 C.3     1  UNL1        0.0686
     12 C         142.1899  139.3548  166.9168 C.3     1  UNL1        0.0172
     13 C         139.8183  139.4924  165.0914 C.3     1  UNL1        0.0314
     14 H         140.5983  139.2570  169.7270 H       1  UNL1        0.1232
     15 C         138.9346  139.3587  163.2940 C.2     1  UNL1        0.2644
     16 O         138.0949  138.4126  162.8224 O.2     1  UNL1       -0.2713
     17 N         138.3068  140.7193  163.3600 N.am    1  UNL1       -0.1956
     18 O         136.8843  140.9108  162.9242 O.3     1  UNL1       -0.2951
     19 H         138.8283  141.4867  163.6893 H       1  UNL1        0.1823
     20 H         136.5190  140.0616  162.6305 H       1  UNL1        0.2414
     21 C         141.3224  138.0260  157.9189 C.ar    1  UNL1        0.1454
     22 C         142.4644  137.9878  158.8906 C.ar    1  UNL1        0.0388
     23 C         142.2231  138.2730  160.3433 C.ar    1  UNL1        0.0215
     24 C         140.8397  138.5965  160.8243 C.ar    1  UNL1        0.1063
     25 C         139.6976  138.6348  159.8527 C.ar    1  UNL1        0.0215
     26 C         139.9389  138.3495  158.4000 C.ar    1  UNL1        0.0388
     27 O         141.5637  137.7408  156.4662 O.3     1  UNL1       -0.4535
     28 C         142.8139  133.6200  155.1598 C.ar    1  UNL1        0.0536
     29 C         143.7782  134.4957  155.9036 C.ar    1  UNL1        0.0076
     30 C         143.3614  135.8693  156.3391 C.ar    1  UNL1        0.0376
     31 C         141.9804  136.3671  156.0307 C.ar    1  UNL1        0.1453
     32 C         141.0162  135.4914  155.2869 C.ar    1  UNL1        0.0376
     33 C         141.4329  134.1178  154.8514 C.ar    1  UNL1        0.0076
     34 C         144.7132  130.1372  155.0457 C.3     1  UNL1        0.1109
     35 N         144.2964  131.5108  155.4811 N.am    1  UNL1       -0.2992
     36 C         143.2306  132.2465  154.7243 C.2     1  UNL1        0.2459
     37 O         142.5814  131.6084  153.5320 O.2     1  UNL1       -0.2701
     38 H         144.7225  131.9295  156.2637 H       1  UNL1        0.1498
@<TRIPOS>BOND
     1    34    35    1
     2    35    36   am
     3    36    37    2
     4    36    28    1
     5    28    29   ar
     6    29    30   ar
     7    30    31   ar
     8    31    27    1
     9    27    21    1
    10    21    22   ar
    11    22    23   ar
    12    23    24   ar
    13    24     1    1
    14     1     2    2
    15     1     3    2
    16     1     4    1
    17     4    15    1
    18    15    16    2
    19    15    17   am
    20    17    18    1
    21     4     5    1
    22     5     6    1
    23     6     7    1
    24     7     8    1
    25     8     9    1
    26     9    10    1
    27    10    11    1
    28    11    12    1
    29     7    13    1
    30    24    25   ar
    31    25    26   ar
    32    31    32   ar
    33    32    33   ar
    34    33    28   ar
    35    26    21   ar
    36    13     4    1
    37    12     7    1
    38    35    38    1
    39    17    19    1
    40    18    20    1
    41    10    14    1
@<TRIPOS>MOLECULE
*****
 38 41 0 0 0
SMALL
GASTEIGER

@<TRIPOS>ATOM
      1 S         140.0850  141.1628  164.3065 S.O2    1  UNL1        0.0134
      2 O         138.7516  141.0395  164.1351 O.2     1  UNL1       -0.1683
      3 O         141.5762  141.3249  164.3158 O.2     1  UNL1       -0.1683
      4 C         140.0970  140.9672  165.7936 C.3     1  UNL1        0.1845
      5 C         140.2663  142.4572  165.8301 C.3     1  UNL1        0.0313
      6 C         140.3470  142.8796  167.2672 C.3     1  UNL1        0.0024
      7 C         140.2276  141.6506  168.1189 C.3     1  UNL1        0.0048
      8 C         140.0959  140.3402  168.8369 C.3     1  UNL1        0.0172
      9 C         140.1258  140.3002  170.3361 C.3     1  UNL1        0.0686
     10 N         140.2873  141.5705  171.1172 N.3     1  UNL1       -0.2975
     11 C         140.4190  142.8808  170.3992 C.3     1  UNL1        0.0686
     12 C         140.3892  142.9209  168.9001 C.3     1  UNL1        0.0172
     13 C         140.0731  140.4687  167.2083 C.3     1  UNL1        0.0314
     14 H         141.1264  141.4612  171.6868 H       1  UNL1        0.1232
     15 C         139.9252  139.5182  165.4464 C.2     1  UNL1        0.2644
     16 O         140.8149  138.7230  164.8150 O.2     1  UNL1       -0.2713
     17 N         138.6552  138.8059  165.8068 N.am    1  UNL1       -0.1956
     18 O         138.4835  137.3568  165.4595 O.3     1  UNL1       -0.2951
     19 H         137.9344  139.2896  166.2713 H       1  UNL1        0.1823
     20 H         139.2801  137.0358  165.0087 H       1  UNL1        0.2414
     21 C         140.0490  141.7496  159.8451 C.ar    1  UNL1        0.1454
     22 C         141.3498  141.5512  160.5650 C.ar    1  UNL1        0.0388
     23 C         141.3618  141.3556  162.0522 C.ar    1  UNL1        0.0215
     24 C         140.0730  141.3584  162.8194 C.ar    1  UNL1        0.1063
     25 C         138.7720  141.5567  162.0995 C.ar    1  UNL1        0.0215
     26 C         138.7600  141.7523  160.6124 C.ar    1  UNL1        0.0388
     27 O         140.0370  141.9451  158.3580 O.3     1  UNL1       -0.4535
     28 C         139.5217  146.0702  156.6351 C.ar    1  UNL1        0.0536
     29 C         138.9012  144.8886  155.9504 C.ar    1  UNL1        0.0076
     30 C         139.0729  143.5136  156.5248 C.ar    1  UNL1        0.0376
     31 C         139.8652  143.3202  157.7837 C.ar    1  UNL1        0.1453
     32 C         140.4857  144.5018  158.4683 C.ar    1  UNL1        0.0376
     33 C         140.3140  145.8768  157.8940 C.ar    1  UNL1        0.0076
     34 C         138.4738  149.8814  156.2790 C.3     1  UNL1        0.1109
     35 N         138.6456  148.5064  156.8532 N.am    1  UNL1       -0.2992
     36 C         139.3500  147.4452  156.0608 C.2     1  UNL1        0.2459
     37 O         139.8826  147.7592  154.6941 O.2     1  UNL1       -0.2701
     38 H         138.2960  148.3003  157.7502 H       1  UNL1        0.1498
@<TRIPOS>BOND
     1    34    35    1
     2    35    36   am
     3    36    37    2
     4    36    28    1
     5    28    29   ar
     6    29    30   ar
     7    30    31   ar
     8    31    27    1
     9    27    21    1
    10    21    22   ar
    11    22    23   ar
    12    23    24   ar
    13    24     1    1
    14     1     2    2
    15     1     3    2
    16     1     4    1
    17     4    15    1
    18    15    16    2
    19    15    17   am
    20    17    18    1
    21     4     5    1
    22     5     6    1
    23     6     7    1
    24     7     8    1
    25     8     9    1
    26     9    10    1
    27    10    11    1
    28    11    12    1
    29     7    13    1
    30    24    25   ar
    31    25    26   ar
    32    31    32   ar
    33    32    33   ar
    34    33    28   ar
    35    26    21   ar
    36    13     4    1
    37    12     7    1
    38    35    38    1
    39    17    19    1
    40    18    20    1
    41    10    14    1
@<TRIPOS>MOLECULE
*****
 38 41 0 0 0
SMALL
GASTEIGER

@<TRIPOS>ATOM
      1 S         139.4567  142.6365  159.6623 S.O2    1  UNL1        0.0134
      2 O         138.4013  143.2883  160.1950 O.2     1  UNL1       -0.1683
      3 O         140.6065  141.7891  159.2039 O.2     1  UNL1       -0.1683
      4 C         139.7156  143.5956  158.5384 C.3     1  UNL1        0.1845
      5 C         139.1090  142.5184  157.6887 C.3     1  UNL1        0.0313
      6 C         139.1086  142.9951  156.2665 C.3     1  UNL1        0.0024
      7 C         139.7148  144.3668  156.2371 C.3     1  UNL1        0.0048
      8 C         140.3384  145.7252  156.3632 C.3     1  UNL1        0.0172
      9 C         140.5350  146.5763  155.1438 C.3     1  UNL1        0.0686
     10 N         140.1080  146.0691  153.7983 N.3     1  UNL1       -0.2975
     11 C         139.4844  144.7107  153.6722 C.3     1  UNL1        0.0686
     12 C         139.2878  143.8596  154.8916 C.3     1  UNL1        0.0172
     13 C         140.0900  144.7380  157.6412 C.3     1  UNL1        0.0314
     14 H         140.9390  146.0676  153.2069 H       1  UNL1        0.1232
     15 C         140.2680  144.4722  159.6229 C.2     1  UNL1        0.2644
     16 O         139.6734  145.5492  160.1789 O.2     1  UNL1       -0.2713
     17 N         141.6212  144.1853  160.2030 N.am    1  UNL1       -0.1956
     18 O         142.1736  145.0621  161.2875 O.3     1  UNL1       -0.2951
     19 H         142.1469  143.4215  159.8719 H       1  UNL1        0.1823
     20 H         141.5344  145.7617  161.4946 H       1  UNL1        0.2414
     21 C         138.6800  139.7594  163.0340 C.ar    1  UNL1        0.1454
     22 C         139.8304  139.5272  162.0999 C.ar    1  UNL1        0.0388
     23 C         140.0893  140.4863  160.9760 C.ar    1  UNL1        0.0215
     24 C         139.1978  141.6775  160.7862 C.ar    1  UNL1        0.1063
     25 C         138.0473  141.9097  161.7202 C.ar    1  UNL1        0.0215
     26 C         137.7884  140.9506  162.8441 C.ar    1  UNL1        0.0388
     27 O         138.4211  138.8003  164.1579 O.3     1  UNL1       -0.4535
     28 C         139.4855  139.9403  168.3790 C.ar    1  UNL1        0.0536
     29 C         138.1953  139.2290  168.0969 C.ar    1  UNL1        0.0076
     30 C         137.8406  138.8490  166.6898 C.ar    1  UNL1        0.0376
     31 C         138.7759  139.1803  165.5649 C.ar    1  UNL1        0.1453
     32 C         140.0660  139.8916  165.8471 C.ar    1  UNL1        0.0376
     33 C         140.4208  140.2716  167.2541 C.ar    1  UNL1        0.0076
     34 C         141.1847  141.7989  171.4463 C.3     1  UNL1        0.1109
     35 N         140.8298  141.4188  170.0393 N.am    1  UNL1       -0.2992
     36 C         139.8403  140.3203  169.7859 C.2     1  UNL1        0.2459
     37 O         139.2056  139.6019  170.9397 O.2     1  UNL1       -0.2701
     38 H         141.2464  141.8903  169.2821 H       1  UNL1        0.1498
@<TRIPOS>BOND
     1    34    35    1
     2    35    36   am
     3    36    37    2
     4    36    28    1
     5    28    29   ar
     6    29    30   ar
     7    30    31   ar
     8    31    27    1
     9    27    21    1
    10    21    22   ar
    11    22    23   ar
    12    23    24   ar
    13    24     1    1
    14     1     2    2
    15     1     3    2
    16     1     4    1
    17     4    15    1
    18    15    16    2
    19    15    17   am
    20    17    18    1
    21     4     5    1
    22     5     6    1
    23     6     7    1
    24     7     8    1
    25     8     9    1
    26     9    10    1
    27    10    11    1
    28    11    12    1
    29     7    13    1
    30    24    25   ar
    31    25    26   ar
    32    31    32   ar
    33    32    33   ar
    34    33    28   ar
    35    26    21   ar
    36    13     4    1
    37    12     7    1
    38    35    38    1
    39    17    19    1
    40    18    20    1
    41    10    14    1
@<TRIPOS>MOLECULE
*****
 38 41 0 0 0
SMALL
GASTEIGER

@<TRIPOS>ATOM
      1 S         139.1960  139.9657  164.9810 S.O2    1  UNL1        0.0134
      2 O         137.8614  140.1690  164.9844 O.2     1  UNL1       -0.1683
      3 O         140.6647  139.7236  164.7955 O.2     1  UNL1       -0.1683
      4 C         139.4027  140.0847  166.4619 C.3     1  UNL1        0.1845
      5 C         140.0632  141.3838  166.1066 C.3     1  UNL1        0.0313
      6 C         140.5311  142.0288  167.3774 C.3     1  UNL1        0.0024
      7 C         140.1597  141.1285  168.5183 C.3     1  UNL1        0.0048
      8 C         139.7264  140.1316  169.5519 C.3     1  UNL1        0.0172
      9 C         140.0037  140.3878  171.0036 C.3     1  UNL1        0.0686
     10 N         140.7143  141.6408  171.4216 N.3     1  UNL1       -0.2975
     11 C         141.1476  142.6377  170.3881 C.3     1  UNL1        0.0686
     12 C         140.8703  142.3815  168.9364 C.3     1  UNL1        0.0172
     13 C         139.4624  139.9269  167.9525 C.3     1  UNL1        0.0314
     14 H         141.5549  141.3500  171.9209 H       1  UNL1        0.1232
     15 C         138.6991  138.7609  166.5078 C.2     1  UNL1        0.2644
     16 O         139.0328  137.6396  165.8340 O.2     1  UNL1       -0.2713
     17 N         137.4860  138.5857  167.3725 N.am    1  UNL1       -0.1956
     18 O         136.7824  137.2618  167.4184 O.3     1  UNL1       -0.2951
     19 H         137.1516  139.3397  167.9100 H       1  UNL1        0.1823
     20 H         137.2371  136.6336  166.8356 H       1  UNL1        0.2414
     21 C         138.5758  139.6088  160.5384 C.ar    1  UNL1        0.1454
     22 C         139.5530  138.7082  161.2340 C.ar    1  UNL1        0.0388
     23 C         139.7598  138.8272  162.7149 C.ar    1  UNL1        0.0215
     24 C         138.9893  139.8467  163.5001 C.ar    1  UNL1        0.1063
     25 C         138.0120  140.7473  162.8046 C.ar    1  UNL1        0.0215
     26 C         137.8052  140.6283  161.3237 C.ar    1  UNL1        0.0388
     27 O         138.3691  139.4898  159.0575 O.3     1  UNL1       -0.4535
     28 C         141.9158  139.1140  156.3134 C.ar    1  UNL1        0.0536
     29 C         141.0963  137.9035  156.6499 C.ar    1  UNL1        0.0076
     30 C         139.9141  138.0288  157.5645 C.ar    1  UNL1        0.0376
     31 C         139.5514  139.3645  158.1427 C.ar    1  UNL1        0.1453
     32 C         140.3709  140.5750  157.8063 C.ar    1  UNL1        0.0376
     33 C         141.5531  140.4497  156.8916 C.ar    1  UNL1        0.0076
     34 C         144.3061  139.6130  153.1849 C.3     1  UNL1        0.1109
     35 N         143.1239  139.7381  154.0996 N.am    1  UNL1       -0.2992
     36 C         143.0980  138.9888  155.3988 C.2     1  UNL1        0.2459
     37 O         144.2545  138.1141  155.7832 O.2     1  UNL1       -0.2701
     38 H         142.3649  140.3122  153.8473 H       1  UNL1        0.1498
@<TRIPOS>BOND
     1    34    35    1
     2    35    36   am
     3    36    37    2
     4    36    28    1
     5    28    29   ar
     6    29    30   ar
     7    30    31   ar
     8    31    27    1
     9    27    21    1
    10    21    22   ar
    11    22    23   ar
    12    23    24   ar
    13    24     1    1
    14     1     2    2
    15     1     3    2
    16     1     4    1
    17     4    15    1
    18    15    16    2
    19    15    17   am
    20    17    18    1
    21     4     5    1
    22     5     6    1
    23     6     7    1
    24     7     8    1
    25     8     9    1
    26     9    10    1
    27    10    11    1
    28    11    12    1
    29     7    13    1
    30    24    25   ar
    31    25    26   ar
    32    31    32   ar
    33    32    33   ar
    34    33    28   ar
    35    26    21   ar
    36    13     4    1
    37    12     7    1
    38    35    38    1
    39    17    19    1
    40    18    20    1
    41    10    14    1
