@<TRIPOS>MOLECULE
*****
 39 41 0 0 0
SMALL
GASTEIGER

@<TRIPOS>ATOM
      1 C         140.9067  138.6943  161.8242 C.3     1  UNL1        0.0241
      2 C         141.7041  139.4648  162.8344 C.3     1  UNL1        0.0232
      3 C         141.1073  139.7891  164.1718 C.3     1  UNL1        0.0938
      4 N         139.7132  139.3428  164.4990 N.am    1  UNL1       -0.2760
      5 C         139.1164  139.6671  165.8365 C.2     1  UNL1        0.2520
      6 O         137.7222  139.2209  166.1638 O.2     1  UNL1       -0.2698
      7 C         138.9157  138.5723  163.4889 C.3     1  UNL1        0.0938
      8 C         139.5125  138.2481  162.1515 C.3     1  UNL1        0.0232
      9 C         139.9138  140.4376  166.8467 C.ar    1  UNL1        0.0878
     10 C         140.5728  139.7203  167.9873 C.ar    1  UNL1        0.0089
     11 C         141.3703  140.4908  168.9975 C.ar    1  UNL1        0.0187
     12 C         141.5087  141.9787  168.8669 C.ar    1  UNL1        0.1087
     13 C         140.8498  142.6960  167.7262 C.ar    1  UNL1        0.0557
     14 C         140.0524  141.9255  166.7161 C.ar    1  UNL1        0.1524
     15 S         142.3062  142.7492  169.8771 S.O2    1  UNL1        0.0105
     16 C         143.1037  143.5197  170.8872 C.3     1  UNL1        0.1816
     17 O         143.5094  142.6738  168.9847 O.2     1  UNL1       -0.1686
     18 O         141.1029  142.8245  170.7695 O.2     1  UNL1       -0.1686
     19 O         139.3934  142.6429  165.5754 O.3     1  UNL1       -0.4043
     20 C         140.0183  143.8829  165.0080 C.3     1  UNL1        0.5753
     21 F         140.6431  145.1228  164.4406 F       1  UNL1       -0.1328
     22 F         138.9540  144.7165  165.6578 F       1  UNL1       -0.1328
     23 F         141.0826  143.0492  164.3582 F       1  UNL1       -0.1328
     24 C         142.7878  137.9779  161.1549 C.3     1  UNL1        0.0240
     25 C         141.5034  138.3700  160.4867 C.3     1  UNL1        0.1151
     26 C         140.2190  138.7621  159.8186 C.3     1  UNL1        0.0240
     27 S         142.1002  138.0457  159.1493 S.O2    1  UNL1        0.0054
     28 O         140.7801  138.3229  158.4931 O.2     1  UNL1       -0.1687
     29 O         143.4202  137.7686  159.8056 O.2     1  UNL1       -0.1687
     30 C         142.6970  137.7214  157.8119 C.ar    1  UNL1        0.1055
     31 C         143.0684  138.8268  156.8684 C.ar    1  UNL1        0.0183
     32 C         143.6652  138.5024  155.5311 C.ar    1  UNL1        0.0013
     33 C         143.8906  137.0727  155.1372 C.ar    1  UNL1        0.0039
     34 C         143.5192  135.9674  156.0807 C.ar    1  UNL1        0.0727
     35 C         142.9224  136.2917  157.4180 C.ar    1  UNL1        0.0222
     36 C         143.7445  134.5377  155.6868 C.3     1  UNL1        0.4186
     37 F         143.9699  133.1079  155.2929 F       1  UNL1       -0.1659
     38 F         144.2266  134.2315  157.0738 F       1  UNL1       -0.1659
     39 F         143.2625  134.8438  154.2997 F       1  UNL1       -0.1659
@<TRIPOS>BOND
     1    24    25    1
     2    25    26    1
     3    25     1    1
     4     1     2    1
     5     2     3    1
     6     3     4    1
     7     4     5   am
     8     5     6    2
     9     5     9    1
    10     9    10   ar
    11    10    11   ar
    12    11    12   ar
    13    12    15    1
    14    15    16    1
    15    15    17    2
    16    15    18    2
    17    12    13   ar
    18    13    14   ar
    19    14    19    1
    20    19    20    1
    21    20    21    1
    22    20    22    1
    23    20    23    1
    24     4     7    1
    25     7     8    1
    26    25    27    1
    27    27    28    2
    28    27    29    2
    29    27    30    1
    30    30    31   ar
    31    31    32   ar
    32    32    33   ar
    33    33    34   ar
    34    34    36    1
    35    36    37    1
    36    36    38    1
    37    36    39    1
    38    34    35   ar
    39     8     1    1
    40    35    30   ar
    41    14     9   ar
@<TRIPOS>MOLECULE
*****
 39 41 0 0 0
SMALL
GASTEIGER

@<TRIPOS>ATOM
      1 C         140.8273  139.2734  160.2751 C.3     1  UNL1        0.0241
      2 C         141.4539  138.9607  161.6016 C.3     1  UNL1        0.0232
      3 C         141.0771  139.7572  162.8154 C.3     1  UNL1        0.0938
      4 N         140.0737  140.8665  162.7029 N.am    1  UNL1       -0.2760
      5 C         139.6969  141.6630  163.9168 C.2     1  UNL1        0.2520
      6 O         138.6935  142.7723  163.8043 O.2     1  UNL1       -0.2698
      7 C         139.4471  141.1792  161.3764 C.3     1  UNL1        0.0938
      8 C         139.8239  140.3827  160.1626 C.3     1  UNL1        0.0232
      9 C         140.3235  141.3502  165.2433 C.ar    1  UNL1        0.0878
     10 C         141.6052  142.0187  165.6435 C.ar    1  UNL1        0.0089
     11 C         142.2318  141.7059  166.9701 C.ar    1  UNL1        0.0187
     12 C         141.5766  140.7246  167.8963 C.ar    1  UNL1        0.1087
     13 C         140.2949  140.0562  167.4960 C.ar    1  UNL1        0.0557
     14 C         139.6683  140.3689  166.1696 C.ar    1  UNL1        0.1524
     15 S         142.2032  140.4119  169.2227 S.O2    1  UNL1        0.0105
     16 C         142.8298  140.0991  170.5493 C.3     1  UNL1        0.1816
     17 O         141.4459  141.5457  169.8478 O.2     1  UNL1       -0.1686
     18 O         142.9606  139.2780  168.5976 O.2     1  UNL1       -0.1686
     19 O         138.3865  139.7005  165.7693 O.3     1  UNL1       -0.4043
     20 C         138.1309  138.2746  166.1584 C.3     1  UNL1        0.5753
     21 F         137.8754  136.8487  166.5474 F       1  UNL1       -0.1328
     22 F         139.0316  137.8113  165.0520 F       1  UNL1       -0.1328
     23 F         137.2303  138.7379  167.2648 F       1  UNL1       -0.1328
     24 C         139.8513  138.7396  158.4689 C.3     1  UNL1        0.0240
     25 C         141.2042  138.4769  159.0612 C.3     1  UNL1        0.1151
     26 C         142.5570  138.2142  159.6534 C.3     1  UNL1        0.0240
     27 S         141.5809  137.6804  157.8472 S.O2    1  UNL1        0.0054
     28 O         140.1504  137.6914  157.3961 O.2     1  UNL1       -0.1687
     29 O         143.0114  137.6695  158.2984 O.2     1  UNL1       -0.1687
     30 C         141.9577  136.8839  156.6333 C.ar    1  UNL1        0.1055
     31 C         141.5839  137.3771  155.2669 C.ar    1  UNL1        0.0183
     32 C         141.9607  136.5806  154.0530 C.ar    1  UNL1        0.0013
     33 C         142.7114  135.2909  154.2055 C.ar    1  UNL1        0.0039
     34 C         143.0852  134.7978  155.5719 C.ar    1  UNL1        0.0727
     35 C         142.7084  135.5943  156.7858 C.ar    1  UNL1        0.0222
     36 C         143.8359  133.5081  155.7244 C.3     1  UNL1        0.4186
     37 F         144.5866  132.2184  155.8768 F       1  UNL1       -0.1659
     38 F         143.2890  133.0344  154.4104 F       1  UNL1       -0.1659
     39 F         144.3828  133.9818  157.0383 F       1  UNL1       -0.1659
@<TRIPOS>BOND
     1    24    25    1
     2    25    26    1
     3    25     1    1
     4     1     2    1
     5     2     3    1
     6     3     4    1
     7     4     5   am
     8     5     6    2
     9     5     9    1
    10     9    10   ar
    11    10    11   ar
    12    11    12   ar
    13    12    15    1
    14    15    16    1
    15    15    17    2
    16    15    18    2
    17    12    13   ar
    18    13    14   ar
    19    14    19    1
    20    19    20    1
    21    20    21    1
    22    20    22    1
    23    20    23    1
    24     4     7    1
    25     7     8    1
    26    25    27    1
    27    27    28    2
    28    27    29    2
    29    27    30    1
    30    30    31   ar
    31    31    32   ar
    32    32    33   ar
    33    33    34   ar
    34    34    36    1
    35    36    37    1
    36    36    38    1
    37    36    39    1
    38    34    35   ar
    39     8     1    1
    40    35    30   ar
    41    14     9   ar
@<TRIPOS>MOLECULE
*****
 39 41 0 0 0
SMALL
GASTEIGER

@<TRIPOS>ATOM
      1 C         142.2082  140.2516  160.2790 C.3     1  UNL1        0.0241
      2 C         141.8219  139.9173  161.6892 C.3     1  UNL1        0.0232
      3 C         141.9543  140.9509  162.7682 C.3     1  UNL1        0.0938
      4 N         142.4729  142.3188  162.4368 N.am    1  UNL1       -0.2760
      5 C         142.6052  143.3524  163.5158 C.2     1  UNL1        0.2520
      6 O         143.1238  144.7203  163.1845 O.2     1  UNL1       -0.2698
      7 C         142.8592  142.6532  161.0265 C.3     1  UNL1        0.0938
      8 C         142.7268  141.6196  159.9476 C.3     1  UNL1        0.0232
      9 C         142.2190  143.0181  164.9261 C.ar    1  UNL1        0.0878
     10 C         143.2664  142.5819  165.9073 C.ar    1  UNL1        0.0089
     11 C         142.8801  142.2476  167.3177 C.ar    1  UNL1        0.0187
     12 C         141.4464  142.3493  167.7468 C.ar    1  UNL1        0.1087
     13 C         140.3990  142.7855  166.7656 C.ar    1  UNL1        0.0557
     14 C         140.7852  143.1198  165.3553 C.ar    1  UNL1        0.1524
     15 S         141.0602  142.0150  169.1571 S.O2    1  UNL1        0.0105
     16 C         140.6739  141.6807  170.5674 C.3     1  UNL1        0.1816
     17 O         140.4085  143.3587  169.2972 O.2     1  UNL1       -0.1686
     18 O         141.7118  140.6712  169.0170 O.2     1  UNL1       -0.1686
     19 O         139.7378  143.5559  164.3741 O.3     1  UNL1       -0.4043
     20 C         138.4151  144.0645  164.8656 C.3     1  UNL1        0.5753
     21 F         137.0924  144.5731  165.3572 F       1  UNL1       -0.1328
     22 F         139.0420  145.3903  165.1808 F       1  UNL1       -0.1328
     23 F         137.7882  142.7388  164.5505 F       1  UNL1       -0.1328
     24 C         140.7718  138.7693  159.7898 C.3     1  UNL1        0.0240
     25 C         142.0759  139.2180  159.1999 C.3     1  UNL1        0.1151
     26 C         143.3799  139.6667  158.6101 C.3     1  UNL1        0.0240
     27 S         141.9435  138.1845  158.1210 S.O2    1  UNL1        0.0054
     28 O         140.4758  138.0716  158.4091 O.2     1  UNL1       -0.1687
     29 O         143.4112  138.2973  157.8328 O.2     1  UNL1       -0.1687
     30 C         141.8111  137.1508  157.0420 C.ar    1  UNL1        0.1055
     31 C         140.6944  137.2460  156.0451 C.ar    1  UNL1        0.0183
     32 C         140.5621  136.2124  154.9662 C.ar    1  UNL1        0.0013
     33 C         141.5466  135.0837  154.8841 C.ar    1  UNL1        0.0039
     34 C         142.6633  134.9885  155.8809 C.ar    1  UNL1        0.0727
     35 C         142.7956  136.0221  156.9599 C.ar    1  UNL1        0.0222
     36 C         143.6478  133.8598  155.7988 C.3     1  UNL1        0.4186
     37 F         144.6323  132.7310  155.7167 F       1  UNL1       -0.1659
     38 F         143.0781  133.4595  154.4702 F       1  UNL1       -0.1659
     39 F         144.2176  134.2601  157.1274 F       1  UNL1       -0.1659
@<TRIPOS>BOND
     1    24    25    1
     2    25    26    1
     3    25     1    1
     4     1     2    1
     5     2     3    1
     6     3     4    1
     7     4     5   am
     8     5     6    2
     9     5     9    1
    10     9    10   ar
    11    10    11   ar
    12    11    12   ar
    13    12    15    1
    14    15    16    1
    15    15    17    2
    16    15    18    2
    17    12    13   ar
    18    13    14   ar
    19    14    19    1
    20    19    20    1
    21    20    21    1
    22    20    22    1
    23    20    23    1
    24     4     7    1
    25     7     8    1
    26    25    27    1
    27    27    28    2
    28    27    29    2
    29    27    30    1
    30    30    31   ar
    31    31    32   ar
    32    32    33   ar
    33    33    34   ar
    34    34    36    1
    35    36    37    1
    36    36    38    1
    37    36    39    1
    38    34    35   ar
    39     8     1    1
    40    35    30   ar
    41    14     9   ar
@<TRIPOS>MOLECULE
*****
 39 41 0 0 0
SMALL
GASTEIGER

@<TRIPOS>ATOM
      1 C         139.3099  140.2195  160.8070 C.3     1  UNL1        0.0241
      2 C         139.4885  141.0114  162.0683 C.3     1  UNL1        0.0232
      3 C         140.0147  140.3444  163.3045 C.3     1  UNL1        0.0938
      4 N         140.3623  138.8855  163.2794 N.am    1  UNL1       -0.2760
      5 C         140.8886  138.2184  164.5156 C.2     1  UNL1        0.2520
      6 O         141.2362  136.7595  164.4905 O.2     1  UNL1       -0.2698
      7 C         140.1838  138.0935  162.0181 C.3     1  UNL1        0.0938
      8 C         139.6576  138.7606  160.7819 C.3     1  UNL1        0.0232
      9 C         141.0671  139.0103  165.7769 C.ar    1  UNL1        0.0878
     10 C         142.4434  139.3967  166.2314 C.ar    1  UNL1        0.0089
     11 C         142.6220  140.1886  167.4928 C.ar    1  UNL1        0.0187
     12 C         141.4243  140.5942  168.2996 C.ar    1  UNL1        0.1087
     13 C         140.0480  140.2079  167.8451 C.ar    1  UNL1        0.0557
     14 C         139.8694  139.4160  166.5838 C.ar    1  UNL1        0.1524
     15 S         141.6029  141.3861  169.5609 S.O2    1  UNL1        0.0105
     16 C         141.7815  142.1781  170.8223 C.3     1  UNL1        0.1816
     17 O         143.0873  141.1890  169.4745 O.2     1  UNL1       -0.1686
     18 O         140.1184  141.5833  169.6473 O.2     1  UNL1       -0.1686
     19 O         138.4931  139.0296  166.1293 O.3     1  UNL1       -0.4043
     20 C         137.8029  137.8498  166.7469 C.3     1  UNL1        0.5753
     21 F         137.1127  136.6699  167.3646 F       1  UNL1       -0.1328
     22 F         138.3432  136.9658  165.6622 F       1  UNL1       -0.1328
     23 F         137.2626  138.7337  167.8316 F       1  UNL1       -0.1328
     24 C         138.5335  142.1410  160.3542 C.3     1  UNL1        0.0240
     25 C         138.7837  140.8866  159.5708 C.3     1  UNL1        0.1151
     26 C         139.0340  139.6321  158.7874 C.3     1  UNL1        0.0240
     27 S         138.2575  141.5536  158.3346 S.O2    1  UNL1        0.0054
     28 O         138.4503  142.8954  158.9766 O.2     1  UNL1       -0.1687
     29 O         138.0647  140.2117  157.6926 O.2     1  UNL1       -0.1687
     30 C         137.7313  142.2206  157.0984 C.ar    1  UNL1        0.1055
     31 C         138.3615  143.4889  156.6044 C.ar    1  UNL1        0.0183
     32 C         137.8353  144.1559  155.3682 C.ar    1  UNL1        0.0013
     33 C         136.6788  143.5545  154.6260 C.ar    1  UNL1        0.0039
     34 C         136.0485  142.2862  155.1200 C.ar    1  UNL1        0.0727
     35 C         136.5748  141.6193  156.3562 C.ar    1  UNL1        0.0222
     36 C         134.8920  141.6848  154.3778 C.3     1  UNL1        0.4186
     37 F         133.7355  141.0835  153.6357 F       1  UNL1       -0.1659
     38 F         134.2144  141.3798  155.6808 F       1  UNL1       -0.1659
     39 F         135.5696  141.9899  153.0748 F       1  UNL1       -0.1659
@<TRIPOS>BOND
     1    24    25    1
     2    25    26    1
     3    25     1    1
     4     1     2    1
     5     2     3    1
     6     3     4    1
     7     4     5   am
     8     5     6    2
     9     5     9    1
    10     9    10   ar
    11    10    11   ar
    12    11    12   ar
    13    12    15    1
    14    15    16    1
    15    15    17    2
    16    15    18    2
    17    12    13   ar
    18    13    14   ar
    19    14    19    1
    20    19    20    1
    21    20    21    1
    22    20    22    1
    23    20    23    1
    24     4     7    1
    25     7     8    1
    26    25    27    1
    27    27    28    2
    28    27    29    2
    29    27    30    1
    30    30    31   ar
    31    31    32   ar
    32    32    33   ar
    33    33    34   ar
    34    34    36    1
    35    36    37    1
    36    36    38    1
    37    36    39    1
    38    34    35   ar
    39     8     1    1
    40    35    30   ar
    41    14     9   ar
@<TRIPOS>MOLECULE
*****
 39 41 0 0 0
SMALL
GASTEIGER

@<TRIPOS>ATOM
      1 C         142.3786  143.3762  160.4883 C.3     1  UNL1        0.0241
      2 C         141.4201  143.1985  161.6283 C.3     1  UNL1        0.0232
      3 C         141.8658  142.5055  162.8817 C.3     1  UNL1        0.0938
      4 N         143.2699  141.9902  162.9951 N.am    1  UNL1       -0.2760
      5 C         143.7156  141.2971  164.2486 C.2     1  UNL1        0.2520
      6 O         145.1197  140.7818  164.3619 O.2     1  UNL1       -0.2698
      7 C         144.2284  142.1678  161.8550 C.3     1  UNL1        0.0938
      8 C         143.7827  142.8609  160.6016 C.3     1  UNL1        0.0232
      9 C         142.7571  141.1194  165.3886 C.ar    1  UNL1        0.0878
     10 C         142.6008  142.2039  166.4130 C.ar    1  UNL1        0.0089
     11 C         141.6423  142.0262  167.5531 C.ar    1  UNL1        0.0187
     12 C         140.8402  140.7640  167.6687 C.ar    1  UNL1        0.1087
     13 C         140.9965  139.6795  166.6443 C.ar    1  UNL1        0.0557
     14 C         141.9549  139.8572  165.5043 C.ar    1  UNL1        0.1524
     15 S         139.8817  140.5863  168.8088 S.O2    1  UNL1        0.0105
     16 C         138.9232  140.4087  169.9489 C.3     1  UNL1        0.1816
     17 O         140.6004  141.6539  169.5793 O.2     1  UNL1       -0.1686
     18 O         139.1631  139.5188  168.0382 O.2     1  UNL1       -0.1686
     19 O         142.1112  138.7727  164.4799 O.3     1  UNL1       -0.4043
     20 C         140.9037  138.0451  163.9676 C.3     1  UNL1        0.5753
     21 F         139.6961  137.3176  163.4554 F       1  UNL1       -0.1328
     22 F         141.3152  136.8229  164.7335 F       1  UNL1       -0.1328
     23 F         140.4922  139.2674  163.2017 F       1  UNL1       -0.1328
     24 C         140.7730  144.6647  159.9764 C.3     1  UNL1        0.0240
     25 C         141.9329  144.0693  159.2348 C.3     1  UNL1        0.1151
     26 C         143.0929  143.4739  158.4932 C.3     1  UNL1        0.0240
     27 S         141.4873  144.7623  157.9814 S.O2    1  UNL1        0.0054
     28 O         140.4307  143.7170  157.7791 O.2     1  UNL1       -0.1687
     29 O         142.5438  145.8076  158.1837 O.2     1  UNL1       -0.1687
     30 C         141.0416  145.4554  156.7280 C.ar    1  UNL1        0.1055
     31 C         141.4711  144.9333  155.3890 C.ar    1  UNL1        0.0183
     32 C         141.0254  145.6264  154.1357 C.ar    1  UNL1        0.0013
     33 C         140.1503  146.8417  154.2213 C.ar    1  UNL1        0.0039
     34 C         139.7208  147.3638  155.5602 C.ar    1  UNL1        0.0727
     35 C         140.1665  146.6707  156.8136 C.ar    1  UNL1        0.0222
     36 C         138.8457  148.5790  155.6458 C.3     1  UNL1        0.4186
     37 F         137.9706  149.7943  155.7315 F       1  UNL1       -0.1659
     38 F         138.5762  148.2831  157.0915 F       1  UNL1       -0.1659
     39 F         139.1152  148.8749  154.2002 F       1  UNL1       -0.1659
@<TRIPOS>BOND
     1    24    25    1
     2    25    26    1
     3    25     1    1
     4     1     2    1
     5     2     3    1
     6     3     4    1
     7     4     5   am
     8     5     6    2
     9     5     9    1
    10     9    10   ar
    11    10    11   ar
    12    11    12   ar
    13    12    15    1
    14    15    16    1
    15    15    17    2
    16    15    18    2
    17    12    13   ar
    18    13    14   ar
    19    14    19    1
    20    19    20    1
    21    20    21    1
    22    20    22    1
    23    20    23    1
    24     4     7    1
    25     7     8    1
    26    25    27    1
    27    27    28    2
    28    27    29    2
    29    27    30    1
    30    30    31   ar
    31    31    32   ar
    32    32    33   ar
    33    33    34   ar
    34    34    36    1
    35    36    37    1
    36    36    38    1
    37    36    39    1
    38    34    35   ar
    39     8     1    1
    40    35    30   ar
    41    14     9   ar
@<TRIPOS>MOLECULE
*****
 39 41 0 0 0
SMALL
GASTEIGER

@<TRIPOS>ATOM
      1 C         139.7694  140.8389  160.8258 C.3     1  UNL1        0.0241
      2 C         139.9618  141.4992  162.1588 C.3     1  UNL1        0.0232
      3 C         140.3805  140.6838  163.3462 C.3     1  UNL1        0.0938
      4 N         140.6067  139.2082  163.2006 N.am    1  UNL1       -0.2760
      5 C         141.0254  138.3928  164.3880 C.2     1  UNL1        0.2520
      6 O         141.2516  136.9171  164.2424 O.2     1  UNL1       -0.2698
      7 C         140.4142  138.5478  161.8676 C.3     1  UNL1        0.0938
      8 C         139.9956  139.3632  160.6802 C.3     1  UNL1        0.0232
      9 C         141.2178  139.0532  165.7210 C.ar    1  UNL1        0.0878
     10 C         142.6012  139.3582  166.2141 C.ar    1  UNL1        0.0089
     11 C         142.7936  140.0186  167.5472 C.ar    1  UNL1        0.0187
     12 C         141.6027  140.3739  168.3870 C.ar    1  UNL1        0.1087
     13 C         140.2193  140.0688  167.8939 C.ar    1  UNL1        0.0557
     14 C         140.0269  139.4085  166.5609 C.ar    1  UNL1        0.1524
     15 S         141.7952  141.0342  169.7200 S.O2    1  UNL1        0.0105
     16 C         141.9876  141.6946  171.0531 C.3     1  UNL1        0.1816
     17 O         140.3711  141.5045  169.6926 O.2     1  UNL1       -0.1686
     18 O         143.2192  140.5639  169.7474 O.2     1  UNL1       -0.1686
     19 O         138.6435  139.1034  166.0678 O.3     1  UNL1       -0.4043
     20 C         137.8928  137.9279  166.6195 C.3     1  UNL1        0.5753
     21 F         137.1421  136.7523  167.1713 F       1  UNL1       -0.1328
     22 F         137.3616  138.7874  167.7281 F       1  UNL1       -0.1328
     23 F         138.4240  137.0684  165.5110 F       1  UNL1       -0.1328
     24 C         138.9455  140.4009  158.9208 C.3     1  UNL1        0.0240
     25 C         139.3507  141.6542  159.6384 C.3     1  UNL1        0.1151
     26 C         139.7559  142.9075  160.3560 C.3     1  UNL1        0.0240
     27 S         138.9320  142.4695  158.4510 S.O2    1  UNL1        0.0054
     28 O         139.3167  143.7244  159.1770 O.2     1  UNL1       -0.1687
     29 O         138.5474  141.2145  157.7250 O.2     1  UNL1       -0.1687
     30 C         138.5133  143.2847  157.2634 C.ar    1  UNL1        0.1055
     31 C         137.2995  142.8922  156.4745 C.ar    1  UNL1        0.0183
     32 C         136.8808  143.7074  155.2871 C.ar    1  UNL1        0.0013
     33 C         137.6760  144.9152  154.8886 C.ar    1  UNL1        0.0039
     34 C         138.8898  145.3078  155.6775 C.ar    1  UNL1        0.0727
     35 C         139.3085  144.4926  156.8649 C.ar    1  UNL1        0.0222
     36 C         139.6850  146.5157  155.2790 C.3     1  UNL1        0.4186
     37 F         140.4802  147.7235  154.8805 F       1  UNL1       -0.1659
     38 F         139.0385  147.3043  156.3791 F       1  UNL1       -0.1659
     39 F         140.3315  145.7271  154.1789 F       1  UNL1       -0.1659
@<TRIPOS>BOND
     1    24    25    1
     2    25    26    1
     3    25     1    1
     4     1     2    1
     5     2     3    1
     6     3     4    1
     7     4     5   am
     8     5     6    2
     9     5     9    1
    10     9    10   ar
    11    10    11   ar
    12    11    12   ar
    13    12    15    1
    14    15    16    1
    15    15    17    2
    16    15    18    2
    17    12    13   ar
    18    13    14   ar
    19    14    19    1
    20    19    20    1
    21    20    21    1
    22    20    22    1
    23    20    23    1
    24     4     7    1
    25     7     8    1
    26    25    27    1
    27    27    28    2
    28    27    29    2
    29    27    30    1
    30    30    31   ar
    31    31    32   ar
    32    32    33   ar
    33    33    34   ar
    34    34    36    1
    35    36    37    1
    36    36    38    1
    37    36    39    1
    38    34    35   ar
    39     8     1    1
    40    35    30   ar
    41    14     9   ar
@<TRIPOS>MOLECULE
*****
 39 41 0 0 0
SMALL
GASTEIGER

@<TRIPOS>ATOM
      1 C         142.6135  139.9620  162.9786 C.3     1  UNL1        0.0241
      2 C         141.4556  139.5975  162.0975 C.3     1  UNL1        0.0232
      3 C         141.6492  139.4810  160.6146 C.3     1  UNL1        0.0938
      4 N         143.0007  139.7290  160.0129 N.am    1  UNL1       -0.2760
      5 C         143.1943  139.6125  158.5300 C.2     1  UNL1        0.2520
      6 O         144.5458  139.8604  157.9283 O.2     1  UNL1       -0.2698
      7 C         144.1586  140.0935  160.8941 C.3     1  UNL1        0.0938
      8 C         143.9649  140.2100  162.3770 C.3     1  UNL1        0.0232
      9 C         142.0365  139.2480  157.6488 C.ar    1  UNL1        0.0878
     10 C         141.0619  140.3031  157.2162 C.ar    1  UNL1        0.0089
     11 C         139.9040  139.9385  156.3350 C.ar    1  UNL1        0.0187
     12 C         139.7207  138.5190  155.8865 C.ar    1  UNL1        0.1087
     13 C         140.6952  137.4639  156.3191 C.ar    1  UNL1        0.0557
     14 C         141.8531  137.8284  157.2002 C.ar    1  UNL1        0.1524
     15 S         138.5629  138.1545  155.0053 S.O2    1  UNL1        0.0105
     16 C         137.4050  137.7901  154.1241 C.3     1  UNL1        0.1816
     17 O         138.7397  139.4344  154.2435 O.2     1  UNL1       -0.1686
     18 O         138.3860  136.8746  155.7671 O.2     1  UNL1       -0.1686
     19 O         142.8276  136.7733  157.6328 O.3     1  UNL1       -0.4043
     20 C         143.4488  135.8634  156.6149 C.3     1  UNL1        0.5753
     21 F         144.0699  134.9535  155.5970 F       1  UNL1       -0.1328
     22 F         142.8104  134.6813  157.2820 F       1  UNL1       -0.1328
     23 F         144.0872  137.0455  155.9478 F       1  UNL1       -0.1328
     24 C         143.6955  139.3224  164.6875 C.3     1  UNL1        0.0240
     25 C         142.4199  140.0785  164.4616 C.3     1  UNL1        0.1151
     26 C         141.1443  140.8346  164.2357 C.3     1  UNL1        0.0240
     27 S         142.2263  140.1950  165.9444 S.O2    1  UNL1        0.0054
     28 O         141.1465  139.1556  165.8851 O.2     1  UNL1       -0.1687
     29 O         143.3062  141.2343  166.0037 O.2     1  UNL1       -0.1687
     30 C         142.0328  140.3115  167.4274 C.ar    1  UNL1        0.1055
     31 C         142.5656  139.2464  168.3393 C.ar    1  UNL1        0.0183
     32 C         142.3721  139.3629  169.8221 C.ar    1  UNL1        0.0013
     33 C         141.6458  140.5447  170.3931 C.ar    1  UNL1        0.0039
     34 C         141.1130  141.6098  169.4812 C.ar    1  UNL1        0.0727
     35 C         141.3065  141.4932  167.9984 C.ar    1  UNL1        0.0222
     36 C         140.3867  142.7915  170.0522 C.3     1  UNL1        0.4186
     37 F         139.6604  143.9732  170.6232 F       1  UNL1       -0.1659
     38 F         139.1627  141.9461  170.2449 F       1  UNL1       -0.1659
     39 F         141.6107  143.6369  169.8596 F       1  UNL1       -0.1659
@<TRIPOS>BOND
     1    24    25    1
     2    25    26    1
     3    25     1    1
     4     1     2    1
     5     2     3    1
     6     3     4    1
     7     4     5   am
     8     5     6    2
     9     5     9    1
    10     9    10   ar
    11    10    11   ar
    12    11    12   ar
    13    12    15    1
    14    15    16    1
    15    15    17    2
    16    15    18    2
    17    12    13   ar
    18    13    14   ar
    19    14    19    1
    20    19    20    1
    21    20    21    1
    22    20    22    1
    23    20    23    1
    24     4     7    1
    25     7     8    1
    26    25    27    1
    27    27    28    2
    28    27    29    2
    29    27    30    1
    30    30    31   ar
    31    31    32   ar
    32    32    33   ar
    33    33    34   ar
    34    34    36    1
    35    36    37    1
    36    36    38    1
    37    36    39    1
    38    34    35   ar
    39     8     1    1
    40    35    30   ar
    41    14     9   ar
@<TRIPOS>MOLECULE
*****
 39 41 0 0 0
SMALL
GASTEIGER

@<TRIPOS>ATOM
      1 C         143.2528  140.0582  160.5598 C.3     1  UNL1        0.0241
      2 C         143.2215  140.8338  161.8433 C.3     1  UNL1        0.0232
      3 C         142.7136  140.1874  163.0979 C.3     1  UNL1        0.0938
      4 N         142.2369  138.7655  163.0691 N.am    1  UNL1       -0.2760
      5 C         141.7290  138.1192  164.3238 C.2     1  UNL1        0.2520
      6 O         141.2523  136.6972  164.2950 O.2     1  UNL1       -0.2698
      7 C         142.2682  137.9899  161.7856 C.3     1  UNL1        0.0938
      8 C         142.7761  138.6362  160.5310 C.3     1  UNL1        0.0232
      9 C         141.6977  138.8948  165.6073 C.ar    1  UNL1        0.0878
     10 C         142.9803  139.2658  166.2909 C.ar    1  UNL1        0.0089
     11 C         142.9490  140.0415  167.5744 C.ar    1  UNL1        0.0187
     12 C         141.6351  140.4460  168.1744 C.ar    1  UNL1        0.1087
     13 C         140.3525  140.0750  167.4909 C.ar    1  UNL1        0.0557
     14 C         140.3838  139.2994  166.2074 C.ar    1  UNL1        0.1524
     15 S         141.6039  141.2216  169.4579 S.O2    1  UNL1        0.0105
     16 C         141.5727  141.9973  170.7415 C.3     1  UNL1        0.1816
     17 O         143.0051  140.7793  169.7593 O.2     1  UNL1       -0.1686
     18 O         140.2027  141.6640  169.1564 O.2     1  UNL1       -0.1686
     19 O         139.1012  138.9283  165.5239 O.3     1  UNL1       -0.4043
     20 C         138.0649  138.1288  166.2566 C.3     1  UNL1        0.5753
     21 F         137.0286  137.3293  166.9893 F       1  UNL1       -0.1328
     22 F         137.4522  139.3967  166.7734 F       1  UNL1       -0.1328
     23 F         138.6775  136.8610  165.7397 F       1  UNL1       -0.1328
     24 C         144.2526  141.8733  160.1063 C.3     1  UNL1        0.0240
     25 C         143.7607  140.7045  159.3050 C.3     1  UNL1        0.1151
     26 C         143.2689  139.5358  158.5038 C.3     1  UNL1        0.0240
     27 S         144.2687  141.3509  158.0504 S.O2    1  UNL1        0.0054
     28 O         144.5303  139.9974  157.4591 O.2     1  UNL1       -0.1687
     29 O         144.0071  142.7043  158.6417 O.2     1  UNL1       -0.1687
     30 C         144.7767  141.9973  156.7957 C.ar    1  UNL1        0.1055
     31 C         143.8244  142.7059  155.8786 C.ar    1  UNL1        0.0183
     32 C         144.3324  143.3523  154.6240 C.ar    1  UNL1        0.0013
     33 C         145.7926  143.2900  154.2865 C.ar    1  UNL1        0.0039
     34 C         146.7448  142.5814  155.2035 C.ar    1  UNL1        0.0727
     35 C         146.2368  141.9350  156.4581 C.ar    1  UNL1        0.0222
     36 C         148.2050  142.5191  154.8660 C.3     1  UNL1        0.4186
     37 F         149.6652  142.4568  154.5284 F       1  UNL1       -0.1659
     38 F         148.3733  141.3633  155.8072 F       1  UNL1       -0.1659
     39 F         148.0367  143.6748  153.9247 F       1  UNL1       -0.1659
@<TRIPOS>BOND
     1    24    25    1
     2    25    26    1
     3    25     1    1
     4     1     2    1
     5     2     3    1
     6     3     4    1
     7     4     5   am
     8     5     6    2
     9     5     9    1
    10     9    10   ar
    11    10    11   ar
    12    11    12   ar
    13    12    15    1
    14    15    16    1
    15    15    17    2
    16    15    18    2
    17    12    13   ar
    18    13    14   ar
    19    14    19    1
    20    19    20    1
    21    20    21    1
    22    20    22    1
    23    20    23    1
    24     4     7    1
    25     7     8    1
    26    25    27    1
    27    27    28    2
    28    27    29    2
    29    27    30    1
    30    30    31   ar
    31    31    32   ar
    32    32    33   ar
    33    33    34   ar
    34    34    36    1
    35    36    37    1
    36    36    38    1
    37    36    39    1
    38    34    35   ar
    39     8     1    1
    40    35    30   ar
    41    14     9   ar
@<TRIPOS>MOLECULE
*****
 39 41 0 0 0
SMALL
GASTEIGER

@<TRIPOS>ATOM
      1 C         142.0592  143.2342  160.6121 C.3     1  UNL1        0.0241
      2 C         141.3748  142.8590  161.8930 C.3     1  UNL1        0.0232
      3 C         142.1762  142.3251  163.0430 C.3     1  UNL1        0.0938
      4 N         143.6620  142.1663  162.9121 N.am    1  UNL1       -0.2760
      5 C         144.4634  141.6324  164.0623 C.2     1  UNL1        0.2520
      6 O         145.9493  141.4736  163.9314 O.2     1  UNL1       -0.2698
      7 C         144.3465  142.5416  161.6313 C.3     1  UNL1        0.0938
      8 C         143.5451  143.0755  160.4812 C.3     1  UNL1        0.0232
      9 C         143.7790  141.2571  165.3432 C.ar    1  UNL1        0.0878
     10 C         143.5076  142.3036  166.3830 C.ar    1  UNL1        0.0089
     11 C         142.8231  141.9283  167.6639 C.ar    1  UNL1        0.0187
     12 C         142.4101  140.5066  167.9050 C.ar    1  UNL1        0.1087
     13 C         142.6816  139.4602  166.8652 C.ar    1  UNL1        0.0557
     14 C         143.3660  139.8354  165.5843 C.ar    1  UNL1        0.1524
     15 S         141.7257  140.1314  169.1859 S.O2    1  UNL1        0.0105
     16 C         141.0413  139.7562  170.4669 C.3     1  UNL1        0.1816
     17 O         143.0542  140.0787  169.8803 O.2     1  UNL1       -0.1686
     18 O         140.3972  140.1841  168.4914 O.2     1  UNL1       -0.1686
     19 O         143.6374  138.7889  164.5445 O.3     1  UNL1       -0.4043
     20 C         142.5202  138.2809  163.6821 C.3     1  UNL1        0.5753
     21 F         141.4030  137.7730  162.8197 F       1  UNL1       -0.1328
     22 F         142.0483  137.4086  164.8074 F       1  UNL1       -0.1328
     23 F         142.9921  139.1533  162.5569 F       1  UNL1       -0.1328
     24 C         141.5320  142.5129  158.6882 C.3     1  UNL1        0.0240
     25 C         141.2578  143.7682  159.4620 C.3     1  UNL1        0.1151
     26 C         140.9837  145.0236  160.2358 C.3     1  UNL1        0.0240
     27 S         140.4565  144.3021  158.3119 S.O2    1  UNL1        0.0054
     28 O         141.7156  144.7974  157.6645 O.2     1  UNL1       -0.1687
     29 O         139.1973  143.8069  158.9593 O.2     1  UNL1       -0.1687
     30 C         139.6551  144.8360  157.1618 C.ar    1  UNL1        0.1055
     31 C         139.8348  146.2576  156.7183 C.ar    1  UNL1        0.0183
     32 C         139.0334  146.7915  155.5682 C.ar    1  UNL1        0.0013
     33 C         138.0522  145.9037  154.8616 C.ar    1  UNL1        0.0039
     34 C         137.8725  144.4822  155.3051 C.ar    1  UNL1        0.0727
     35 C         138.6739  143.9483  156.4552 C.ar    1  UNL1        0.0222
     36 C         136.8913  143.5944  154.5986 C.3     1  UNL1        0.4186
     37 F         135.9101  142.7067  153.8920 F       1  UNL1       -0.1659
     38 F         136.5445  144.7185  153.6679 F       1  UNL1       -0.1659
     39 F         137.2381  142.4704  155.5293 F       1  UNL1       -0.1659
@<TRIPOS>BOND
     1    24    25    1
     2    25    26    1
     3    25     1    1
     4     1     2    1
     5     2     3    1
     6     3     4    1
     7     4     5   am
     8     5     6    2
     9     5     9    1
    10     9    10   ar
    11    10    11   ar
    12    11    12   ar
    13    12    15    1
    14    15    16    1
    15    15    17    2
    16    15    18    2
    17    12    13   ar
    18    13    14   ar
    19    14    19    1
    20    19    20    1
    21    20    21    1
    22    20    22    1
    23    20    23    1
    24     4     7    1
    25     7     8    1
    26    25    27    1
    27    27    28    2
    28    27    29    2
    29    27    30    1
    30    30    31   ar
    31    31    32   ar
    32    32    33   ar
    33    33    34   ar
    34    34    36    1
    35    36    37    1
    36    36    38    1
    37    36    39    1
    38    34    35   ar
    39     8     1    1
    40    35    30   ar
    41    14     9   ar
