@<TRIPOS>MOLECULE
*****
 33 36 0 0 0
SMALL
GASTEIGER

@<TRIPOS>ATOM
      1 C         142.0631  142.4428  163.7804 C.3     1  UNL1        0.1754
      2 C         142.2504  142.8594  162.3516 C.ar    1  UNL1        0.0096
      3 C         143.3057  142.5264  161.3391 C.ar    1  UNL1        0.0082
      4 C         143.2286  143.1051  159.9574 C.ar    1  UNL1        0.0682
      5 C         142.0962  144.0169  159.5883 C.ar    1  UNL1        0.0104
      6 C         141.0409  144.3499  160.6008 C.ar    1  UNL1        0.0050
      7 C         141.1180  143.7712  161.9825 C.ar    1  UNL1        0.0517
      8 C         140.2308  143.9181  163.1831 C.2     1  UNL1        0.2496
      9 O         138.9793  144.7414  163.2592 O.2     1  UNL1       -0.2699
     10 N         140.8150  143.0970  164.2943 N.am    1  UNL1       -0.2620
     11 N         142.8492  140.0448  164.3985 N.am    1  UNL1       -0.3059
     12 C         142.9656  141.5318  164.5586 C.2     1  UNL1        0.2448
     13 O         143.9843  142.1075  165.4969 O.2     1  UNL1       -0.2729
     14 H         142.1806  139.6668  163.7826 H       1  UNL1        0.1494
     15 C         142.6368  138.8524  166.1400 C.3     1  UNL1        0.0196
     16 C         143.7517  139.1338  165.1767 C.3     1  UNL1        0.0569
     17 C         144.8665  139.4153  164.2134 C.3     1  UNL1        0.0196
     18 C         144.6541  138.2228  165.9549 C.3     1  UNL1        0.0196
     19 C         144.2840  142.7720  158.9448 C.1     1  UNL1        0.1004
     20 N         145.3394  142.4390  157.9323 N.1     1  UNL1       -0.1908
     21 C         140.2501  142.9552  165.6766 C.3     1  UNL1        0.1212
     22 C         139.6320  141.6573  166.1047 C.ar    1  UNL1       -0.0023
     23 C         138.7138  140.9210  165.1747 C.ar    1  UNL1       -0.0026
     24 C         138.0956  139.6231  165.6027 C.ar    1  UNL1       -0.0003
     25 C         138.3956  139.0614  166.9609 C.ar    1  UNL1       -0.0000
     26 C         139.3138  139.7976  167.8909 C.ar    1  UNL1       -0.0003
     27 C         139.9320  141.0956  167.4628 C.ar    1  UNL1       -0.0024
     28 C         140.8501  141.8317  168.3929 C.ar    1  UNL1       -0.0003
     29 C         142.3038  141.4675  168.4557 C.ar    1  UNL1       -0.0000
     30 C         143.2220  142.2037  169.3857 C.ar    1  UNL1       -0.0000
     31 C         142.6864  143.3042  170.2530 C.ar    1  UNL1       -0.0000
     32 C         141.2326  143.6684  170.1902 C.ar    1  UNL1       -0.0000
     33 C         140.3145  142.9322  169.2601 C.ar    1  UNL1       -0.0000
@<TRIPOS>BOND
     1    15    16    1
     2    16    17    1
     3    16    18    1
     4    16    11    1
     5    11    12   am
     6    12    13    2
     7    12     1    1
     8     1     2    1
     9     2     3   ar
    10     3     4   ar
    11     4    19    1
    12    19    20    3
    13     4     5   ar
    14     5     6   ar
    15     6     7   ar
    16     7     8    1
    17     8     9    2
    18     8    10   am
    19    10    21    1
    20    21    22    1
    21    22    23   ar
    22    23    24   ar
    23    24    25   ar
    24    25    26   ar
    25    26    27   ar
    26    27    28    1
    27    28    29   ar
    28    29    30   ar
    29    30    31   ar
    30    31    32   ar
    31    32    33   ar
    32    10     1    1
    33    27    22   ar
    34    33    28   ar
    35     7     2   ar
    36    11    14    1
@<TRIPOS>MOLECULE
*****
 33 36 0 0 0
SMALL
GASTEIGER

@<TRIPOS>ATOM
      1 C         141.3426  142.9298  163.5652 C.3     1  UNL1        0.1754
      2 C         141.0507  143.9005  162.4596 C.ar    1  UNL1        0.0096
      3 C         141.5893  144.0252  161.0652 C.ar    1  UNL1        0.0082
      4 C         141.0984  145.1217  160.1669 C.ar    1  UNL1        0.0682
      5 C         140.0691  146.0934  160.6631 C.ar    1  UNL1        0.0104
      6 C         139.5305  145.9687  162.0575 C.ar    1  UNL1        0.0050
      7 C         140.0214  144.8723  162.9557 C.ar    1  UNL1        0.0517
      8 C         139.6771  144.5020  164.3679 C.2     1  UNL1        0.2496
      9 O         138.6896  145.2083  165.2488 O.2     1  UNL1       -0.2699
     10 N         140.4937  143.3015  164.7446 N.am    1  UNL1       -0.2620
     11 N         143.3285  141.6055  164.5914 N.am    1  UNL1       -0.3059
     12 C         142.3131  141.7877  163.5023 C.2     1  UNL1        0.2448
     13 O         142.2683  140.8279  162.3506 O.2     1  UNL1       -0.2729
     14 H         143.3580  142.2355  165.3473 H       1  UNL1        0.1494
     15 C         145.2653  141.3264  163.7723 C.3     1  UNL1        0.0196
     16 C         144.2990  140.4635  164.5285 C.3     1  UNL1        0.0569
     17 C         143.3327  139.6007  165.2848 C.3     1  UNL1        0.0196
     18 C         145.2695  139.3216  164.4657 C.3     1  UNL1        0.0196
     19 C         141.6370  145.2464  158.7724 C.1     1  UNL1        0.1004
     20 N         142.1755  145.3711  157.3780 N.1     1  UNL1       -0.1908
     21 C         140.4662  142.5964  166.0683 C.3     1  UNL1        0.1212
     22 C         139.6695  141.3359  166.2302 C.ar    1  UNL1       -0.0023
     23 C         138.8117  140.8408  165.1037 C.ar    1  UNL1       -0.0026
     24 C         138.0150  139.5803  165.2656 C.ar    1  UNL1       -0.0003
     25 C         138.0761  138.8147  166.5541 C.ar    1  UNL1       -0.0000
     26 C         138.9338  139.3097  167.6806 C.ar    1  UNL1       -0.0003
     27 C         139.7306  140.5703  167.5187 C.ar    1  UNL1       -0.0024
     28 C         140.5883  141.0653  168.6453 C.ar    1  UNL1       -0.0003
     29 C         142.0384  140.6864  168.7063 C.ar    1  UNL1       -0.0000
     30 C         142.8962  141.1814  169.8328 C.ar    1  UNL1       -0.0000
     31 C         142.3039  142.0553  170.8985 C.ar    1  UNL1       -0.0000
     32 C         140.8538  142.4342  170.8375 C.ar    1  UNL1       -0.0000
     33 C         139.9960  141.9392  169.7108 C.ar    1  UNL1       -0.0000
@<TRIPOS>BOND
     1    15    16    1
     2    16    17    1
     3    16    18    1
     4    16    11    1
     5    11    12   am
     6    12    13    2
     7    12     1    1
     8     1     2    1
     9     2     3   ar
    10     3     4   ar
    11     4    19    1
    12    19    20    3
    13     4     5   ar
    14     5     6   ar
    15     6     7   ar
    16     7     8    1
    17     8     9    2
    18     8    10   am
    19    10    21    1
    20    21    22    1
    21    22    23   ar
    22    23    24   ar
    23    24    25   ar
    24    25    26   ar
    25    26    27   ar
    26    27    28    1
    27    28    29   ar
    28    29    30   ar
    29    30    31   ar
    30    31    32   ar
    31    32    33   ar
    32    10     1    1
    33    27    22   ar
    34    33    28   ar
    35     7     2   ar
    36    11    14    1
@<TRIPOS>MOLECULE
*****
 33 36 0 0 0
SMALL
GASTEIGER

@<TRIPOS>ATOM
      1 C         141.9919  141.1637  164.5937 C.3     1  UNL1        0.1754
      2 C         142.2309  141.0661  166.0713 C.ar    1  UNL1        0.0096
      3 C         142.3982  142.1131  167.1323 C.ar    1  UNL1        0.0082
      4 C         142.6300  141.7064  168.5574 C.ar    1  UNL1        0.0682
      5 C         142.6945  140.2526  168.9214 C.ar    1  UNL1        0.0104
      6 C         142.5272  139.2056  167.8604 C.ar    1  UNL1        0.0050
      7 C         142.2955  139.6124  166.4354 C.ar    1  UNL1        0.0517
      8 C         142.0963  138.8116  165.1827 C.2     1  UNL1        0.2496
      9 O         142.0865  137.3148  165.0854 O.2     1  UNL1       -0.2699
     10 N         141.9087  139.7704  164.0445 N.am    1  UNL1       -0.2620
     11 N         140.7142  143.3642  164.0686 N.am    1  UNL1       -0.3059
     12 C         141.8593  142.4321  163.8040 C.2     1  UNL1        0.2448
     13 O         142.8717  142.7684  162.7496 O.2     1  UNL1       -0.2729
     14 H         140.0496  143.1435  164.7607 H       1  UNL1        0.1494
     15 C         139.4111  144.0515  162.5424 C.3     1  UNL1        0.0196
     16 C         140.5816  144.6326  163.2789 C.3     1  UNL1        0.0569
     17 C         141.7521  145.2135  164.0154 C.3     1  UNL1        0.0196
     18 C         140.4490  145.9008  162.4892 C.3     1  UNL1        0.0196
     19 C         142.7972  142.7534  169.6185 C.1     1  UNL1        0.1004
     20 N         142.9645  143.8003  170.6795 N.1     1  UNL1       -0.1908
     21 C         141.6783  139.4007  162.6091 C.3     1  UNL1        0.1212
     22 C         140.5730  140.0549  161.8343 C.ar    1  UNL1       -0.0023
     23 C         140.8696  140.7263  160.5261 C.ar    1  UNL1       -0.0026
     24 C         139.7644  141.3805  159.7513 C.ar    1  UNL1       -0.0003
     25 C         138.3625  141.3632  160.2845 C.ar    1  UNL1       -0.0000
     26 C         138.0658  140.6918  161.5926 C.ar    1  UNL1       -0.0003
     27 C         139.1711  140.0376  162.3676 C.ar    1  UNL1       -0.0024
     28 C         138.8745  139.3662  163.6757 C.ar    1  UNL1       -0.0003
     29 C         138.9024  137.8697  163.7739 C.ar    1  UNL1       -0.0000
     30 C         138.6058  137.1983  165.0820 C.ar    1  UNL1       -0.0000
     31 C         138.2812  138.0234  166.2920 C.ar    1  UNL1       -0.0000
     32 C         138.2532  139.5199  166.1937 C.ar    1  UNL1       -0.0000
     33 C         138.5499  140.1913  164.8855 C.ar    1  UNL1       -0.0000
@<TRIPOS>BOND
     1    15    16    1
     2    16    17    1
     3    16    18    1
     4    16    11    1
     5    11    12   am
     6    12    13    2
     7    12     1    1
     8     1     2    1
     9     2     3   ar
    10     3     4   ar
    11     4    19    1
    12    19    20    3
    13     4     5   ar
    14     5     6   ar
    15     6     7   ar
    16     7     8    1
    17     8     9    2
    18     8    10   am
    19    10    21    1
    20    21    22    1
    21    22    23   ar
    22    23    24   ar
    23    24    25   ar
    24    25    26   ar
    25    26    27   ar
    26    27    28    1
    27    28    29   ar
    28    29    30   ar
    29    30    31   ar
    30    31    32   ar
    31    32    33   ar
    32    10     1    1
    33    27    22   ar
    34    33    28   ar
    35     7     2   ar
    36    11    14    1
@<TRIPOS>MOLECULE
*****
 33 36 0 0 0
SMALL
GASTEIGER

@<TRIPOS>ATOM
      1 C         141.1044  139.2305  160.7419 C.3     1  UNL1        0.1754
      2 C         141.1958  138.6831  159.3484 C.ar    1  UNL1        0.0096
      3 C         142.3177  138.0272  158.5993 C.ar    1  UNL1        0.0082
      4 C         142.1104  137.5728  157.1850 C.ar    1  UNL1        0.0682
      5 C         140.7812  137.7743  156.5197 C.ar    1  UNL1        0.0104
      6 C         139.6593  138.4302  157.2687 C.ar    1  UNL1        0.0050
      7 C         139.8666  138.8846  158.6831 C.ar    1  UNL1        0.0517
      8 C         138.9537  139.5565  159.6655 C.2     1  UNL1        0.2496
      9 O         137.5264  139.9462  159.4187 O.2     1  UNL1       -0.2699
     10 N         139.7187  139.7703  160.9379 N.am    1  UNL1       -0.2620
     11 N         142.6619  140.5325  162.3635 N.am    1  UNL1       -0.3059
     12 C         142.2054  139.2369  161.7607 C.2     1  UNL1        0.2448
     13 O         142.8499  137.9480  162.1766 O.2     1  UNL1       -0.2729
     14 H         142.2389  141.3785  162.0905 H       1  UNL1        0.1494
     15 C         144.7666  140.7883  162.2957 C.3     1  UNL1        0.0196
     16 C         143.7629  140.5389  163.3822 C.3     1  UNL1        0.0569
     17 C         142.7591  140.2896  164.4686 C.3     1  UNL1        0.0196
     18 C         144.8638  140.5454  164.4008 C.3     1  UNL1        0.0196
     19 C         143.2323  136.9168  156.4358 C.1     1  UNL1        0.1004
     20 N         144.3541  136.2609  155.6867 N.1     1  UNL1       -0.1908
     21 C         139.1907  140.4114  162.1870 C.3     1  UNL1        0.1212
     22 C         138.9563  139.5816  163.4145 C.ar    1  UNL1       -0.0023
     23 C         138.9471  138.0848  163.3174 C.ar    1  UNL1       -0.0026
     24 C         138.7128  137.2550  164.5448 C.ar    1  UNL1       -0.0003
     25 C         138.4877  137.9221  165.8693 C.ar    1  UNL1       -0.0000
     26 C         138.4968  139.4189  165.9664 C.ar    1  UNL1       -0.0003
     27 C         138.7312  140.2487  164.7390 C.ar    1  UNL1       -0.0024
     28 C         138.7404  141.7455  164.8361 C.ar    1  UNL1       -0.0003
     29 C         139.8940  142.4477  165.4889 C.ar    1  UNL1       -0.0000
     30 C         139.9031  143.9445  165.5860 C.ar    1  UNL1       -0.0000
     31 C         138.7587  144.7392  165.0302 C.ar    1  UNL1       -0.0000
     32 C         137.6051  144.0370  164.3774 C.ar    1  UNL1       -0.0000
     33 C         137.5960  142.5401  164.2803 C.ar    1  UNL1       -0.0000
@<TRIPOS>BOND
     1    15    16    1
     2    16    17    1
     3    16    18    1
     4    16    11    1
     5    11    12   am
     6    12    13    2
     7    12     1    1
     8     1     2    1
     9     2     3   ar
    10     3     4   ar
    11     4    19    1
    12    19    20    3
    13     4     5   ar
    14     5     6   ar
    15     6     7   ar
    16     7     8    1
    17     8     9    2
    18     8    10   am
    19    10    21    1
    20    21    22    1
    21    22    23   ar
    22    23    24   ar
    23    24    25   ar
    24    25    26   ar
    25    26    27   ar
    26    27    28    1
    27    28    29   ar
    28    29    30   ar
    29    30    31   ar
    30    31    32   ar
    31    32    33   ar
    32    10     1    1
    33    27    22   ar
    34    33    28   ar
    35     7     2   ar
    36    11    14    1
@<TRIPOS>MOLECULE
*****
 33 36 0 0 0
SMALL
GASTEIGER

@<TRIPOS>ATOM
      1 C         141.5883  141.8960  163.1877 C.3     1  UNL1        0.1754
      2 C         141.0078  143.1357  162.5742 C.ar    1  UNL1        0.0096
      3 C         140.9976  143.6476  161.1643 C.ar    1  UNL1        0.0082
      4 C         140.3240  144.9490  160.8439 C.ar    1  UNL1        0.0682
      5 C         139.6607  145.7384  161.9333 C.ar    1  UNL1        0.0104
      6 C         139.6709  145.2264  163.3432 C.ar    1  UNL1        0.0050
      7 C         140.3445  143.9251  163.6636 C.ar    1  UNL1        0.0517
      8 C         140.5150  143.1733  164.9504 C.2     1  UNL1        0.2496
      9 O         140.0062  143.6006  166.2952 O.2     1  UNL1       -0.2699
     10 N         141.2837  141.9193  164.6563 N.am    1  UNL1       -0.2620
     11 N         141.5955  139.7075  161.7875 N.am    1  UNL1       -0.3059
     12 C         142.3412  140.8218  162.4603 C.2     1  UNL1        0.2448
     13 O         143.8396  140.8616  162.4056 O.2     1  UNL1       -0.2729
     14 H         140.6120  139.6813  161.8233 H       1  UNL1        0.1494
     15 C         142.4613  137.8497  162.3342 C.3     1  UNL1        0.0196
     16 C         142.3484  138.6332  161.0601 C.3     1  UNL1        0.0569
     17 C         142.2354  139.4168  159.7860 C.3     1  UNL1        0.0196
     18 C         143.1012  137.5590  160.3327 C.3     1  UNL1        0.0196
     19 C         140.3137  145.4610  159.4340 C.1     1  UNL1        0.1004
     20 N         140.3034  145.9729  158.0241 N.1     1  UNL1       -0.1908
     21 C         141.6786  140.8724  165.6553 C.3     1  UNL1        0.1212
     22 C         140.7885  140.5799  166.8267 C.ar    1  UNL1       -0.0023
     23 C         141.1988  141.0060  168.2052 C.ar    1  UNL1       -0.0026
     24 C         140.3087  140.7135  169.3766 C.ar    1  UNL1       -0.0003
     25 C         139.0084  139.9950  169.1696 C.ar    1  UNL1       -0.0000
     26 C         138.5981  139.5690  167.7911 C.ar    1  UNL1       -0.0003
     27 C         139.4882  139.8614  166.6197 C.ar    1  UNL1       -0.0024
     28 C         139.0779  139.4354  165.2412 C.ar    1  UNL1       -0.0003
     29 C         139.4255  138.0629  164.7458 C.ar    1  UNL1       -0.0000
     30 C         139.0152  137.6369  163.3674 C.ar    1  UNL1       -0.0000
     31 C         138.2572  138.5834  162.4843 C.ar    1  UNL1       -0.0000
     32 C         137.9096  139.9558  162.9797 C.ar    1  UNL1       -0.0000
     33 C         138.3199  140.3818  164.3582 C.ar    1  UNL1       -0.0000
@<TRIPOS>BOND
     1    15    16    1
     2    16    17    1
     3    16    18    1
     4    16    11    1
     5    11    12   am
     6    12    13    2
     7    12     1    1
     8     1     2    1
     9     2     3   ar
    10     3     4   ar
    11     4    19    1
    12    19    20    3
    13     4     5   ar
    14     5     6   ar
    15     6     7   ar
    16     7     8    1
    17     8     9    2
    18     8    10   am
    19    10    21    1
    20    21    22    1
    21    22    23   ar
    22    23    24   ar
    23    24    25   ar
    24    25    26   ar
    25    26    27   ar
    26    27    28    1
    27    28    29   ar
    28    29    30   ar
    29    30    31   ar
    30    31    32   ar
    31    32    33   ar
    32    10     1    1
    33    27    22   ar
    34    33    28   ar
    35     7     2   ar
    36    11    14    1
@<TRIPOS>MOLECULE
*****
 33 36 0 0 0
SMALL
GASTEIGER

@<TRIPOS>ATOM
      1 C         140.3576  142.2702  163.3394 C.3     1  UNL1        0.1754
      2 C         139.8866  142.4643  161.9286 C.ar    1  UNL1        0.0096
      3 C         140.2398  143.4805  160.8834 C.ar    1  UNL1        0.0082
      4 C         139.5920  143.4224  159.5317 C.ar    1  UNL1        0.0682
      5 C         138.5910  142.3481  159.2253 C.ar    1  UNL1        0.0104
      6 C         138.2378  141.3319  160.2705 C.ar    1  UNL1        0.0050
      7 C         138.8856  141.3900  161.6222 C.ar    1  UNL1        0.0517
      8 C         138.7381  140.5319  162.8436 C.2     1  UNL1        0.2496
      9 O         137.8386  139.3392  162.9798 O.2     1  UNL1       -0.2699
     10 N         139.6478  141.0759  163.9049 N.am    1  UNL1       -0.2620
     11 N         142.8151  142.7485  164.0340 N.am    1  UNL1       -0.3059
     12 C         141.3622  143.1210  164.0584 C.2     1  UNL1        0.2448
     13 O         140.9140  144.3442  164.8019 O.2     1  UNL1       -0.2729
     14 H         143.1093  141.9456  163.5461 H       1  UNL1        0.1494
     15 C         143.8419  144.5519  163.5946 C.3     1  UNL1        0.0196
     16 C         143.8196  143.5993  164.7531 C.3     1  UNL1        0.0569
     17 C         143.7973  142.6466  165.9115 C.3     1  UNL1        0.0196
     18 C         144.8241  144.4500  165.4721 C.3     1  UNL1        0.0196
     19 C         139.9452  144.4387  158.4864 C.1     1  UNL1        0.1004
     20 N         140.2984  145.4549  157.4412 N.1     1  UNL1       -0.1908
     21 C         139.8179  140.5227  165.2888 C.3     1  UNL1        0.1212
     22 C         141.0712  139.7829  165.6520 C.ar    1  UNL1       -0.0023
     23 C         141.7856  138.9647  164.6175 C.ar    1  UNL1       -0.0026
     24 C         143.0389  138.2249  164.9806 C.ar    1  UNL1       -0.0003
     25 C         143.5778  138.3032  166.3783 C.ar    1  UNL1       -0.0000
     26 C         142.8634  139.1214  167.4128 C.ar    1  UNL1       -0.0003
     27 C         141.6101  139.8613  167.0496 C.ar    1  UNL1       -0.0024
     28 C         140.8957  140.6794  168.0841 C.ar    1  UNL1       -0.0003
     29 C         141.1954  142.1427  168.2213 C.ar    1  UNL1       -0.0000
     30 C         140.4810  142.9609  169.2558 C.ar    1  UNL1       -0.0000
     31 C         139.4668  142.3157  170.1532 C.ar    1  UNL1       -0.0000
     32 C         139.1670  140.8524  170.0160 C.ar    1  UNL1       -0.0000
     33 C         139.8815  140.0343  168.9814 C.ar    1  UNL1       -0.0000
@<TRIPOS>BOND
     1    15    16    1
     2    16    17    1
     3    16    18    1
     4    16    11    1
     5    11    12   am
     6    12    13    2
     7    12     1    1
     8     1     2    1
     9     2     3   ar
    10     3     4   ar
    11     4    19    1
    12    19    20    3
    13     4     5   ar
    14     5     6   ar
    15     6     7   ar
    16     7     8    1
    17     8     9    2
    18     8    10   am
    19    10    21    1
    20    21    22    1
    21    22    23   ar
    22    23    24   ar
    23    24    25   ar
    24    25    26   ar
    25    26    27   ar
    26    27    28    1
    27    28    29   ar
    28    29    30   ar
    29    30    31   ar
    30    31    32   ar
    31    32    33   ar
    32    10     1    1
    33    27    22   ar
    34    33    28   ar
    35     7     2   ar
    36    11    14    1
@<TRIPOS>MOLECULE
*****
 33 36 0 0 0
SMALL
GASTEIGER

@<TRIPOS>ATOM
      1 C         140.5257  141.2600  162.7334 C.3     1  UNL1        0.1754
      2 C         140.3684  142.6793  162.2742 C.ar    1  UNL1        0.0096
      3 C         140.4697  143.3126  160.9182 C.ar    1  UNL1        0.0082
      4 C         140.2580  144.7894  160.7625 C.ar    1  UNL1        0.0682
      5 C         139.9449  145.6328  161.9628 C.ar    1  UNL1        0.0104
      6 C         139.8435  144.9995  163.3187 C.ar    1  UNL1        0.0050
      7 C         140.0553  143.5228  163.4744 C.ar    1  UNL1        0.0517
      8 C         140.0192  142.6247  164.6753 C.2     1  UNL1        0.2496
      9 O         139.7411  143.0505  166.0865 O.2     1  UNL1       -0.2699
     10 N         140.3099  141.2263  164.2174 N.am    1  UNL1       -0.2620
     11 N         142.2134  139.9342  161.2690 N.am    1  UNL1       -0.3059
     12 C         140.8432  140.0814  161.8616 C.2     1  UNL1        0.2448
     13 O         139.7906  139.0499  161.5823 O.2     1  UNL1       -0.2729
     14 H         142.9043  140.6112  161.4522 H       1  UNL1        0.1494
     15 C         142.9486  137.9734  161.6070 C.3     1  UNL1        0.0196
     16 C         142.5308  138.7556  160.3972 C.3     1  UNL1        0.0569
     17 C         142.1130  139.5379  159.1874 C.3     1  UNL1        0.0196
     18 C         142.8483  137.5770  159.5254 C.3     1  UNL1        0.0196
     19 C         140.3593  145.4227  159.4065 C.1     1  UNL1        0.1004
     20 N         140.4606  146.0560  158.0506 N.1     1  UNL1       -0.1908
     21 C         140.3737  140.0080  165.0902 C.3     1  UNL1        0.1212
     22 C         140.7429  140.1410  166.5379 C.ar    1  UNL1       -0.0023
     23 C         139.6899  139.9982  167.5966 C.ar    1  UNL1       -0.0026
     24 C         140.0591  140.1312  169.0444 C.ar    1  UNL1       -0.0003
     25 C         141.4812  140.4071  169.4334 C.ar    1  UNL1       -0.0000
     26 C         142.5342  140.5500  168.3747 C.ar    1  UNL1       -0.0003
     27 C         142.1650  140.4169  166.9269 C.ar    1  UNL1       -0.0024
     28 C         143.2180  140.5598  165.8683 C.ar    1  UNL1       -0.0003
     29 C         143.8830  139.3402  165.3025 C.ar    1  UNL1       -0.0000
     30 C         144.9360  139.4830  164.2438 C.ar    1  UNL1       -0.0000
     31 C         145.3239  140.8456  163.7509 C.ar    1  UNL1       -0.0000
     32 C         144.6589  142.0653  164.3167 C.ar    1  UNL1       -0.0000
     33 C         143.6058  141.9224  165.3754 C.ar    1  UNL1       -0.0000
@<TRIPOS>BOND
     1    15    16    1
     2    16    17    1
     3    16    18    1
     4    16    11    1
     5    11    12   am
     6    12    13    2
     7    12     1    1
     8     1     2    1
     9     2     3   ar
    10     3     4   ar
    11     4    19    1
    12    19    20    3
    13     4     5   ar
    14     5     6   ar
    15     6     7   ar
    16     7     8    1
    17     8     9    2
    18     8    10   am
    19    10    21    1
    20    21    22    1
    21    22    23   ar
    22    23    24   ar
    23    24    25   ar
    24    25    26   ar
    25    26    27   ar
    26    27    28    1
    27    28    29   ar
    28    29    30   ar
    29    30    31   ar
    30    31    32   ar
    31    32    33   ar
    32    10     1    1
    33    27    22   ar
    34    33    28   ar
    35     7     2   ar
    36    11    14    1
@<TRIPOS>MOLECULE
*****
 33 36 0 0 0
SMALL
GASTEIGER

@<TRIPOS>ATOM
      1 C         142.3957  140.3420  165.7588 C.3     1  UNL1        0.1754
      2 C         142.3422  140.0234  167.2237 C.ar    1  UNL1        0.0096
      3 C         142.9423  138.9111  168.0315 C.ar    1  UNL1        0.0082
      4 C         142.7120  138.8512  169.5125 C.ar    1  UNL1        0.0682
      5 C         141.8816  139.9035  170.1856 C.ar    1  UNL1        0.0104
      6 C         141.2815  141.0158  169.3777 C.ar    1  UNL1        0.0050
      7 C         141.5118  141.0758  167.8968 C.ar    1  UNL1        0.0517
      8 C         141.0522  142.0446  166.8479 C.2     1  UNL1        0.2496
      9 O         140.1965  143.2546  167.0798 O.2     1  UNL1       -0.2699
     10 N         141.5984  141.5911  165.5266 N.am    1  UNL1       -0.2620
     11 N         142.6445  139.5791  163.2877 N.am    1  UNL1       -0.3059
     12 C         143.1195  139.5502  164.7103 C.2     1  UNL1        0.2448
     13 O         144.3181  138.7297  165.0842 O.2     1  UNL1       -0.2729
     14 H         141.8578  140.1177  163.0422 H       1  UNL1        0.1494
     15 C         144.3664  139.8972  162.0903 C.3     1  UNL1        0.0196
     16 C         143.3683  138.7874  162.2392 C.3     1  UNL1        0.0569
     17 C         142.3702  137.6777  162.3881 C.3     1  UNL1        0.0196
     18 C         144.0921  137.9958  161.1907 C.3     1  UNL1        0.0196
     19 C         143.3121  137.7389  170.3204 C.1     1  UNL1        0.1004
     20 N         143.9122  136.6266  171.1283 N.1     1  UNL1       -0.1908
     21 C         141.3849  142.2679  164.2051 C.3     1  UNL1        0.1212
     22 C         140.0777  142.9416  163.9101 C.ar    1  UNL1       -0.0023
     23 C         140.0451  144.4053  163.5833 C.ar    1  UNL1       -0.0026
     24 C         138.7379  145.0790  163.2882 C.ar    1  UNL1       -0.0003
     25 C         137.4631  144.2891  163.3199 C.ar    1  UNL1       -0.0000
     26 C         137.4956  142.8256  163.6467 C.ar    1  UNL1       -0.0003
     27 C         138.8029  142.1518  163.9418 C.ar    1  UNL1       -0.0024
     28 C         138.8353  140.6882  164.2686 C.ar    1  UNL1       -0.0003
     29 C         138.5689  140.2267  165.6707 C.ar    1  UNL1       -0.0000
     30 C         138.6014  138.7631  165.9975 C.ar    1  UNL1       -0.0000
     31 C         138.9003  137.7609  164.9221 C.ar    1  UNL1       -0.0000
     32 C         139.1667  138.2225  163.5200 C.ar    1  UNL1       -0.0000
     33 C         139.1342  139.6861  163.1932 C.ar    1  UNL1       -0.0000
@<TRIPOS>BOND
     1    15    16    1
     2    16    17    1
     3    16    18    1
     4    16    11    1
     5    11    12   am
     6    12    13    2
     7    12     1    1
     8     1     2    1
     9     2     3   ar
    10     3     4   ar
    11     4    19    1
    12    19    20    3
    13     4     5   ar
    14     5     6   ar
    15     6     7   ar
    16     7     8    1
    17     8     9    2
    18     8    10   am
    19    10    21    1
    20    21    22    1
    21    22    23   ar
    22    23    24   ar
    23    24    25   ar
    24    25    26   ar
    25    26    27   ar
    26    27    28    1
    27    28    29   ar
    28    29    30   ar
    29    30    31   ar
    30    31    32   ar
    31    32    33   ar
    32    10     1    1
    33    27    22   ar
    34    33    28   ar
    35     7     2   ar
    36    11    14    1
@<TRIPOS>MOLECULE
*****
 33 36 0 0 0
SMALL
GASTEIGER

@<TRIPOS>ATOM
      1 C         140.7907  141.1220  164.0651 C.3     1  UNL1        0.1754
      2 C         140.0219  140.4472  165.1622 C.ar    1  UNL1        0.0096
      3 C         139.9976  140.6578  166.6471 C.ar    1  UNL1        0.0082
      4 C         139.1084  139.8125  167.5100 C.ar    1  UNL1        0.0682
      5 C         138.2435  138.7566  166.8881 C.ar    1  UNL1        0.0104
      6 C         138.2677  138.5459  165.4032 C.ar    1  UNL1        0.0050
      7 C         139.1569  139.3912  164.5402 C.ar    1  UNL1        0.0517
      8 C         139.3912  139.4135  163.0588 C.2     1  UNL1        0.2496
      9 O         138.7316  138.5224  162.0484 O.2     1  UNL1       -0.2699
     10 N         140.4010  140.4831  162.7652 N.am    1  UNL1       -0.2620
     11 N         141.9464  143.2635  163.1549 N.am    1  UNL1       -0.3059
     12 C         141.7763  142.2395  164.2378 C.2     1  UNL1        0.2448
     13 O         142.5918  142.3331  165.4932 O.2     1  UNL1       -0.2729
     14 H         141.4112  143.2021  162.3308 H       1  UNL1        0.1494
     15 C         141.8517  145.2438  163.9095 C.3     1  UNL1        0.0196
     16 C         142.9320  144.3811  163.3275 C.3     1  UNL1        0.0569
     17 C         144.0122  143.5183  162.7455 C.3     1  UNL1        0.0196
     18 C         143.9175  145.4985  163.5002 C.3     1  UNL1        0.0196
     19 C         139.0842  140.0231  168.9950 C.1     1  UNL1        0.1004
     20 N         139.0599  140.2337  170.4800 N.1     1  UNL1       -0.1908
     21 C         140.9283  140.8496  161.4096 C.3     1  UNL1        0.1212
     22 C         141.4296  139.7797  160.4855 C.ar    1  UNL1       -0.0023
     23 C         140.8384  139.6355  159.1144 C.ar    1  UNL1       -0.0026
     24 C         141.3396  138.5656  158.1903 C.ar    1  UNL1       -0.0003
     25 C         142.4320  137.6398  158.6371 C.ar    1  UNL1       -0.0000
     26 C         143.0232  137.7840  160.0081 C.ar    1  UNL1       -0.0003
     27 C         142.5220  138.8540  160.9323 C.ar    1  UNL1       -0.0024
     28 C         143.1132  138.9981  162.3033 C.ar    1  UNL1       -0.0003
     29 C         142.5580  138.2020  163.4470 C.ar    1  UNL1       -0.0000
     30 C         143.1492  138.3462  164.8180 C.ar    1  UNL1       -0.0000
     31 C         144.2956  139.2865  165.0454 C.ar    1  UNL1       -0.0000
     32 C         144.8507  140.0827  163.9017 C.ar    1  UNL1       -0.0000
     33 C         144.2594  139.9385  162.5307 C.ar    1  UNL1       -0.0000
@<TRIPOS>BOND
     1    15    16    1
     2    16    17    1
     3    16    18    1
     4    16    11    1
     5    11    12   am
     6    12    13    2
     7    12     1    1
     8     1     2    1
     9     2     3   ar
    10     3     4   ar
    11     4    19    1
    12    19    20    3
    13     4     5   ar
    14     5     6   ar
    15     6     7   ar
    16     7     8    1
    17     8     9    2
    18     8    10   am
    19    10    21    1
    20    21    22    1
    21    22    23   ar
    22    23    24   ar
    23    24    25   ar
    24    25    26   ar
    25    26    27   ar
    26    27    28    1
    27    28    29   ar
    28    29    30   ar
    29    30    31   ar
    30    31    32   ar
    31    32    33   ar
    32    10     1    1
    33    27    22   ar
    34    33    28   ar
    35     7     2   ar
    36    11    14    1
