@<TRIPOS>MOLECULE
*****
 31 33 0 0 0
SMALL
GASTEIGER

@<TRIPOS>ATOM
      1 N         138.2375  140.9214  161.9236 N.3     1  UNL1       -0.2665
      2 C         137.5773  141.2597  163.2272 C.3     1  UNL1        0.0992
      3 C         139.6473  140.3147  167.1095 C.ar    1  UNL1        0.0001
      4 C         138.8222  139.2658  166.4248 C.ar    1  UNL1       -0.0003
      5 C         138.1322  139.5807  165.1306 C.ar    1  UNL1       -0.0029
      6 C         138.2672  140.9447  164.5213 C.ar    1  UNL1       -0.0061
      7 C         139.0924  141.9937  165.2061 C.ar    1  UNL1       -0.0029
      8 C         139.7824  141.6787  166.5002 C.ar    1  UNL1       -0.0003
      9 C         141.3280  140.9672  168.9801 C.2     1  UNL1        0.0598
     10 C         140.3373  139.9997  168.4036 C.2     1  UNL1        0.0047
     11 O         141.4338  141.1287  171.5710 O.2     1  UNL1       -0.2681
     12 C         142.0181  140.6522  170.2743 C.2     1  UNL1        0.2679
     13 N         143.2923  139.8608  170.2716 N.am    1  UNL1       -0.1934
     14 O         143.9823  139.5459  171.5658 O.3     1  UNL1       -0.2949
     15 H         143.6758  139.5481  169.4205 H       1  UNL1        0.1825
     16 H         143.4768  139.9243  172.3021 H       1  UNL1        0.2414
     17 C         137.6958  139.8096  161.0748 C.3     1  UNL1        0.1045
     18 C         137.6166  138.4163  161.6249 C.3     1  UNL1        0.1544
     19 O         138.8732  137.6380  161.8798 O.3     1  UNL1       -0.3805
     20 H         139.3166  137.4547  161.0367 H       1  UNL1        0.2105
     21 C         139.4395  141.6949  161.4688 C.3     1  UNL1        0.0772
     22 C         140.8036  141.0756  161.5469 C.3     1  UNL1        0.0453
     23 C         141.6364  141.2492  162.7824 C.2     1  UNL1       -0.0005
     24 C         142.3069  142.5167  163.2227 C.2     1  UNL1        0.0942
     25 N         143.0297  142.2367  164.5069 N.2     1  UNL1       -0.2482
     26 C         142.8060  140.7961  164.8602 C.2     1  UNL1        0.0631
     27 C         143.2752  139.9613  166.0146 C.3     1  UNL1        0.0717
     28 C         142.8831  138.5161  166.1033 C.2     1  UNL1       -0.0198
     29 C         142.0220  137.9059  165.0375 C.2     1  UNL1       -0.0042
     30 C         141.5528  138.7407  163.8830 C.2     1  UNL1        0.0006
     31 C         141.9448  140.1858  163.7944 C.2     1  UNL1        0.0114
@<TRIPOS>BOND
     1    11    12    2
     2    12     9    1
     3     9    10    2
     4    10     3    1
     5     3     4   ar
     6     4     5   ar
     7     5     6   ar
     8     6     2    1
     9     2     1    1
    10     1    17    1
    11    17    18    1
    12    18    19    1
    13     1    21    1
    14    21    22    1
    15    22    23    1
    16    23    24    2
    17    24    25    1
    18    25    26    2
    19    26    27    1
    20    27    28    1
    21    28    29    2
    22    29    30    1
    23    30    31    2
    24     6     7   ar
    25     7     8   ar
    26    12    13   am
    27    13    14    1
    28     8     3   ar
    29    31    23    1
    30    31    26    1
    31    19    20    1
    32    13    15    1
    33    14    16    1
@<TRIPOS>MOLECULE
*****
 31 33 0 0 0
SMALL
GASTEIGER

@<TRIPOS>ATOM
      1 N         141.3339  137.7288  161.8867 N.3     1  UNL1       -0.2665
      2 C         141.1062  137.1534  163.2531 C.3     1  UNL1        0.0992
      3 C         140.0438  139.8618  166.6863 C.ar    1  UNL1        0.0001
      4 C         141.4828  139.6239  166.3361 C.ar    1  UNL1       -0.0003
      5 C         141.8370  138.7211  165.1918 C.ar    1  UNL1       -0.0029
      6 C         140.7521  138.0562  164.3975 C.ar    1  UNL1       -0.0061
      7 C         139.3130  138.2941  164.7477 C.ar    1  UNL1       -0.0029
      8 C         138.9589  139.1968  165.8920 C.ar    1  UNL1       -0.0003
      9 C         140.7690  141.5040  168.5642 C.2     1  UNL1        0.0598
     10 C         139.6897  140.7645  167.8307 C.2     1  UNL1        0.0047
     11 O         140.3270  141.8542  171.1003 O.2     1  UNL1       -0.2681
     12 C         140.4150  142.4069  169.7086 C.2     1  UNL1        0.2679
     13 N         140.1490  143.8622  169.4614 N.am    1  UNL1       -0.1934
     14 O         139.7949  144.7650  170.6058 O.3     1  UNL1       -0.2949
     15 H         140.2067  144.2249  168.5479 H       1  UNL1        0.1825
     16 H         139.7813  144.2527  171.4294 H       1  UNL1        0.2414
     17 C         142.7165  137.7571  161.3057 C.3     1  UNL1        0.1045
     18 C         143.6333  138.9055  161.6070 C.3     1  UNL1        0.1544
     19 O         144.5513  138.8415  162.7915 O.3     1  UNL1       -0.3805
     20 H         144.0266  138.8343  163.6072 H       1  UNL1        0.2105
     21 C         140.1789  138.2758  161.1014 C.3     1  UNL1        0.0772
     22 C         140.0300  139.7574  160.9199 C.3     1  UNL1        0.0453
     23 C         139.1148  140.5349  161.8188 C.2     1  UNL1       -0.0005
     24 C         137.6157  140.5270  161.7706 C.2     1  UNL1        0.0942
     25 N         137.1125  141.4440  162.8458 N.2     1  UNL1       -0.2482
     26 C         138.3008  142.0186  163.5585 C.2     1  UNL1        0.0631
     27 C         138.4158  142.9808  164.7034 C.3     1  UNL1        0.0717
     28 C         139.7683  143.3812  165.2136 C.2     1  UNL1       -0.0198
     29 C         141.0058  142.8193  164.5789 C.2     1  UNL1       -0.0042
     30 C         140.8908  141.8571  163.4340 C.2     1  UNL1        0.0006
     31 C         139.5383  141.4567  162.9238 C.2     1  UNL1        0.0114
@<TRIPOS>BOND
     1    11    12    2
     2    12     9    1
     3     9    10    2
     4    10     3    1
     5     3     4   ar
     6     4     5   ar
     7     5     6   ar
     8     6     2    1
     9     2     1    1
    10     1    17    1
    11    17    18    1
    12    18    19    1
    13     1    21    1
    14    21    22    1
    15    22    23    1
    16    23    24    2
    17    24    25    1
    18    25    26    2
    19    26    27    1
    20    27    28    1
    21    28    29    2
    22    29    30    1
    23    30    31    2
    24     6     7   ar
    25     7     8   ar
    26    12    13   am
    27    13    14    1
    28     8     3   ar
    29    31    23    1
    30    31    26    1
    31    19    20    1
    32    13    15    1
    33    14    16    1
@<TRIPOS>MOLECULE
*****
 31 33 0 0 0
SMALL
GASTEIGER

@<TRIPOS>ATOM
      1 N         142.2025  144.1269  161.7956 N.3     1  UNL1       -0.2665
      2 C         142.5582  144.6093  163.1706 C.3     1  UNL1        0.0992
      3 C         141.2695  142.2566  166.7837 C.ar    1  UNL1        0.0001
      4 C         140.2717  143.0917  166.0375 C.ar    1  UNL1       -0.0003
      5 C         140.7012  143.8759  164.8331 C.ar    1  UNL1       -0.0029
      6 C         142.1286  143.8251  164.3750 C.ar    1  UNL1       -0.0061
      7 C         143.1266  142.9899  165.1213 C.ar    1  UNL1       -0.0029
      8 C         142.6970  142.2057  166.3257 C.ar    1  UNL1       -0.0003
      9 C         140.9149  142.0918  169.3521 C.2     1  UNL1        0.0598
     10 C         140.8400  141.4724  167.9881 C.2     1  UNL1        0.0047
     11 O         140.5506  141.9307  171.9195 O.2     1  UNL1       -0.2681
     12 C         140.4853  141.3077  170.5566 C.2     1  UNL1        0.2679
     13 N         139.9904  139.9006  170.3982 N.am    1  UNL1       -0.1934
     14 O         139.5609  139.1165  171.6026 O.3     1  UNL1       -0.2949
     15 H         139.9475  139.4916  169.5036 H       1  UNL1        0.1825
     16 H         139.6655  139.6621  172.3978 H       1  UNL1        0.2414
     17 C         141.3149  144.9565  160.9160 C.3     1  UNL1        0.1045
     18 C         140.0731  145.5815  161.4794 C.3     1  UNL1        0.1544
     19 O         140.1756  146.7920  162.3593 O.3     1  UNL1       -0.3805
     20 H         140.6267  146.5546  163.1846 H       1  UNL1        0.2105
     21 C         142.7343  142.8147  161.3003 C.3     1  UNL1        0.0772
     22 C         141.8416  141.6098  161.2622 C.3     1  UNL1        0.0453
     23 C         141.7611  140.6982  162.4507 C.2     1  UNL1       -0.0005
     24 C         142.8813  139.8664  163.0013 C.2     1  UNL1        0.0942
     25 N         142.3587  139.1125  164.1881 N.2     1  UNL1       -0.2482
     26 C         140.9155  139.4783  164.3709 C.2     1  UNL1        0.0631
     27 C         139.8900  139.0456  165.3764 C.3     1  UNL1        0.0717
     28 C         138.4951  139.5930  165.3081 C.2     1  UNL1       -0.0198
     29 C         138.1258  140.5730  164.2343 C.2     1  UNL1       -0.0042
     30 C         139.1513  141.0057  163.2288 C.2     1  UNL1        0.0006
     31 C         140.5461  140.4583  163.2971 C.2     1  UNL1        0.0114
@<TRIPOS>BOND
     1    11    12    2
     2    12     9    1
     3     9    10    2
     4    10     3    1
     5     3     4   ar
     6     4     5   ar
     7     5     6   ar
     8     6     2    1
     9     2     1    1
    10     1    17    1
    11    17    18    1
    12    18    19    1
    13     1    21    1
    14    21    22    1
    15    22    23    1
    16    23    24    2
    17    24    25    1
    18    25    26    2
    19    26    27    1
    20    27    28    1
    21    28    29    2
    22    29    30    1
    23    30    31    2
    24     6     7   ar
    25     7     8   ar
    26    12    13   am
    27    13    14    1
    28     8     3   ar
    29    31    23    1
    30    31    26    1
    31    19    20    1
    32    13    15    1
    33    14    16    1
@<TRIPOS>MOLECULE
*****
 31 33 0 0 0
SMALL
GASTEIGER

@<TRIPOS>ATOM
      1 N         138.1554  140.9797  162.0408 N.3     1  UNL1       -0.2665
      2 C         137.4855  141.1985  163.3649 C.3     1  UNL1        0.0992
      3 C         139.7013  140.3150  167.1806 C.ar    1  UNL1        0.0001
      4 C         138.8199  139.2686  166.5657 C.ar    1  UNL1       -0.0003
      5 C         138.0813  139.5631  165.2937 C.ar    1  UNL1       -0.0029
      6 C         138.2241  140.9040  164.6368 C.ar    1  UNL1       -0.0061
      7 C         139.1055  141.9504  165.2518 C.ar    1  UNL1       -0.0029
      8 C         139.8441  141.6559  166.5237 C.ar    1  UNL1       -0.0003
      9 C         141.3728  141.0423  169.0318 C.2     1  UNL1        0.0598
     10 C         140.4399  140.0205  168.4525 C.2     1  UNL1        0.0047
     11 O         141.7053  141.4228  171.5803 O.2     1  UNL1       -0.2681
     12 C         142.1114  140.7478  170.3038 C.2     1  UNL1        0.2679
     13 N         143.2562  139.7786  170.2992 N.am    1  UNL1       -0.1934
     14 O         143.9948  139.4842  171.5711 O.3     1  UNL1       -0.2949
     15 H         143.5228  139.3356  169.4614 H       1  UNL1        0.1825
     16 H         143.6080  139.9995  172.2963 H       1  UNL1        0.2414
     17 C         138.4873  142.1516  161.1654 C.3     1  UNL1        0.1045
     18 C         139.4148  143.2205  161.6628 C.3     1  UNL1        0.1544
     19 O         139.1025  144.6645  161.4039 O.3     1  UNL1       -0.3805
     20 H         139.1493  144.8397  160.4510 H       1  UNL1        0.2105
     21 C         138.4934  139.5889  161.5921 C.3     1  UNL1        0.0772
     22 C         139.9258  139.1473  161.5326 C.3     1  UNL1        0.0453
     23 C         140.6082  138.6463  162.7709 C.2     1  UNL1       -0.0005
     24 C         140.4829  137.2685  163.3506 C.2     1  UNL1        0.0942
     25 N         141.3330  137.2059  164.5848 N.2     1  UNL1       -0.2482
     26 C         141.9837  138.5449  164.7680 C.2     1  UNL1        0.0631
     27 C         142.9263  139.0686  165.8107 C.3     1  UNL1        0.0717
     28 C         143.4209  140.4825  165.7323 C.2     1  UNL1       -0.0198
     29 C         142.9729  141.3727  164.6112 C.2     1  UNL1       -0.0042
     30 C         142.0304  140.8490  163.5685 C.2     1  UNL1        0.0006
     31 C         141.5358  139.4351  163.6469 C.2     1  UNL1        0.0114
@<TRIPOS>BOND
     1    11    12    2
     2    12     9    1
     3     9    10    2
     4    10     3    1
     5     3     4   ar
     6     4     5   ar
     7     5     6   ar
     8     6     2    1
     9     2     1    1
    10     1    17    1
    11    17    18    1
    12    18    19    1
    13     1    21    1
    14    21    22    1
    15    22    23    1
    16    23    24    2
    17    24    25    1
    18    25    26    2
    19    26    27    1
    20    27    28    1
    21    28    29    2
    22    29    30    1
    23    30    31    2
    24     6     7   ar
    25     7     8   ar
    26    12    13   am
    27    13    14    1
    28     8     3   ar
    29    31    23    1
    30    31    26    1
    31    19    20    1
    32    13    15    1
    33    14    16    1
@<TRIPOS>MOLECULE
*****
 31 33 0 0 0
SMALL
GASTEIGER

@<TRIPOS>ATOM
      1 N         140.0415  137.8658  162.6989 N.3     1  UNL1       -0.2665
      2 C         140.3962  137.4338  164.0909 C.3     1  UNL1        0.0992
      3 C         141.8657  140.4596  167.0801 C.ar    1  UNL1        0.0001
      4 C         140.4245  140.4548  166.6643 C.ar    1  UNL1       -0.0003
      5 C         139.9346  139.4462  165.6679 C.ar    1  UNL1       -0.0029
      6 C         140.8860  138.4424  165.0872 C.ar    1  UNL1       -0.0061
      7 C         142.3273  138.4472  165.5030 C.ar    1  UNL1       -0.0029
      8 C         142.8171  139.4558  166.4994 C.ar    1  UNL1       -0.0003
      9 C         141.3735  142.2392  168.9078 C.2     1  UNL1        0.0598
     10 C         142.3555  141.4682  168.0764 C.2     1  UNL1        0.0047
     11 O         140.9533  144.3463  170.3684 O.2     1  UNL1       -0.2681
     12 C         141.8632  143.2478  169.9042 C.2     1  UNL1        0.2679
     13 N         143.2627  143.1580  170.4364 N.am    1  UNL1       -0.1934
     14 O         143.7524  144.1667  171.4328 O.3     1  UNL1       -0.2949
     15 H         143.8599  142.4371  170.1317 H       1  UNL1        0.1825
     16 H         143.0450  144.8024  171.6237 H       1  UNL1        0.2414
     17 C         138.6171  138.1835  162.3522 C.3     1  UNL1        0.1045
     18 C         138.0853  139.5702  162.5629 C.3     1  UNL1        0.1544
     19 O         137.0266  140.1141  161.6500 O.3     1  UNL1       -0.3805
     20 H         137.3903  140.2138  160.7563 H       1  UNL1        0.2105
     21 C         141.1113  137.9802  161.6537 C.3     1  UNL1        0.0772
     22 C         141.6669  139.3262  161.2933 C.3     1  UNL1        0.0453
     23 C         142.7492  139.9397  162.1313 C.2     1  UNL1       -0.0005
     24 C         144.1740  139.4769  162.2082 C.2     1  UNL1        0.0942
     25 N         144.9020  140.3749  163.1640 N.2     1  UNL1       -0.2482
     26 C         143.9272  141.3926  163.6778 C.2     1  UNL1        0.0631
     27 C         144.0792  142.5295  164.6444 C.3     1  UNL1        0.0717
     28 C         142.9007  143.3974  164.9728 C.2     1  UNL1       -0.0198
     29 C         141.5702  143.1284  164.3345 C.2     1  UNL1       -0.0042
     30 C         141.4182  141.9915  163.3679 C.2     1  UNL1        0.0006
     31 C         142.5967  141.1236  163.0396 C.2     1  UNL1        0.0114
@<TRIPOS>BOND
     1    11    12    2
     2    12     9    1
     3     9    10    2
     4    10     3    1
     5     3     4   ar
     6     4     5   ar
     7     5     6   ar
     8     6     2    1
     9     2     1    1
    10     1    17    1
    11    17    18    1
    12    18    19    1
    13     1    21    1
    14    21    22    1
    15    22    23    1
    16    23    24    2
    17    24    25    1
    18    25    26    2
    19    26    27    1
    20    27    28    1
    21    28    29    2
    22    29    30    1
    23    30    31    2
    24     6     7   ar
    25     7     8   ar
    26    12    13   am
    27    13    14    1
    28     8     3   ar
    29    31    23    1
    30    31    26    1
    31    19    20    1
    32    13    15    1
    33    14    16    1
@<TRIPOS>MOLECULE
*****
 31 33 0 0 0
SMALL
GASTEIGER

@<TRIPOS>ATOM
      1 N         143.7398  141.8402  162.1173 N.3     1  UNL1       -0.2665
      2 C         144.4464  141.1710  163.2587 C.3     1  UNL1        0.0992
      3 C         142.2078  140.2231  167.0456 C.ar    1  UNL1        0.0001
      4 C         142.8412  139.1188  166.2523 C.ar    1  UNL1       -0.0003
      5 C         143.5875  139.4347  164.9900 C.ar    1  UNL1       -0.0029
      6 C         143.7003  140.8550  164.5210 C.ar    1  UNL1       -0.0061
      7 C         143.0668  141.9594  165.3143 C.ar    1  UNL1       -0.0029
      8 C         142.3206  141.6434  166.5766 C.ar    1  UNL1       -0.0003
      9 C         141.4710  140.8814  169.4484 C.2     1  UNL1        0.0598
     10 C         141.4617  139.9072  168.3079 C.2     1  UNL1        0.0047
     11 O         140.6253  141.5920  171.7999 O.2     1  UNL1       -0.2681
     12 C         140.7248  140.5655  170.7108 C.2     1  UNL1        0.2679
     13 N         140.0782  139.2231  170.8839 N.am    1  UNL1       -0.1934
     14 O         139.3321  138.9073  172.1463 O.3     1  UNL1       -0.2949
     15 H         140.1436  138.5494  170.1691 H       1  UNL1        0.1825
     16 H         139.3638  139.6731  172.7408 H       1  UNL1        0.2414
     17 C         143.9232  143.3098  161.8797 C.3     1  UNL1        0.1045
     18 C         142.7873  144.2573  162.1285 C.3     1  UNL1        0.1544
     19 O         142.9927  145.4629  162.9970 O.3     1  UNL1       -0.3805
     20 H         143.1697  145.1792  163.9075 H       1  UNL1        0.2105
     21 C         142.8496  141.0397  161.2135 C.3     1  UNL1        0.0772
     22 C         141.4155  140.8072  161.5871 C.3     1  UNL1        0.0453
     23 C         141.0218  139.5506  162.3054 C.2     1  UNL1       -0.0005
     24 C         141.4219  138.1557  161.9256 C.2     1  UNL1        0.0942
     25 N         140.8062  137.2113  162.9151 N.2     1  UNL1       -0.2482
     26 C         140.0257  138.0226  163.9065 C.2     1  UNL1        0.0631
     27 C         139.2109  137.6316  165.1036 C.3     1  UNL1        0.0717
     28 C         138.5294  138.6863  165.9239 C.2     1  UNL1       -0.0198
     29 C         138.6626  140.1321  165.5471 C.2     1  UNL1       -0.0042
     30 C         139.4774  140.5231  164.3499 C.2     1  UNL1        0.0006
     31 C         140.1590  139.4683  163.5297 C.2     1  UNL1        0.0114
@<TRIPOS>BOND
     1    11    12    2
     2    12     9    1
     3     9    10    2
     4    10     3    1
     5     3     4   ar
     6     4     5   ar
     7     5     6   ar
     8     6     2    1
     9     2     1    1
    10     1    17    1
    11    17    18    1
    12    18    19    1
    13     1    21    1
    14    21    22    1
    15    22    23    1
    16    23    24    2
    17    24    25    1
    18    25    26    2
    19    26    27    1
    20    27    28    1
    21    28    29    2
    22    29    30    1
    23    30    31    2
    24     6     7   ar
    25     7     8   ar
    26    12    13   am
    27    13    14    1
    28     8     3   ar
    29    31    23    1
    30    31    26    1
    31    19    20    1
    32    13    15    1
    33    14    16    1
@<TRIPOS>MOLECULE
*****
 31 33 0 0 0
SMALL
GASTEIGER

@<TRIPOS>ATOM
      1 N         139.5357  142.9617  161.0916 N.3     1  UNL1       -0.2665
      2 C         138.3676  142.6286  161.9717 C.3     1  UNL1        0.0992
      3 C         139.0442  140.6440  165.9534 C.ar    1  UNL1        0.0001
      4 C         139.6174  142.0042  165.6862 C.ar    1  UNL1       -0.0003
      5 C         139.3919  142.6658  164.3590 C.ar    1  UNL1       -0.0029
      6 C         138.5931  141.9671  163.2989 C.ar    1  UNL1       -0.0061
      7 C         138.0199  140.6069  163.5660 C.ar    1  UNL1       -0.0029
      8 C         138.2455  139.9454  164.8933 C.ar    1  UNL1       -0.0003
      9 C         140.2475  140.5699  168.2547 C.2     1  UNL1        0.0598
     10 C         139.2698  139.9825  167.2806 C.2     1  UNL1        0.0047
     11 O         141.8568  139.4962  169.9889 O.2     1  UNL1       -0.2681
     12 C         140.4731  139.9085  169.5820 C.2     1  UNL1        0.2679
     13 N         139.3152  139.6593  170.5024 N.am    1  UNL1       -0.1934
     14 O         139.5410  138.9978  171.8296 O.3     1  UNL1       -0.2949
     15 H         138.4071  139.9298  170.2354 H       1  UNL1        0.1825
     16 H         140.4843  138.7978  171.9350 H       1  UNL1        0.2414
     17 C         140.1154  144.3450  161.1062 C.3     1  UNL1        0.1045
     18 C         139.6205  145.3552  162.0985 C.3     1  UNL1        0.1544
     19 O         140.1013  146.7743  162.0274 O.3     1  UNL1       -0.3805
     20 H         141.0505  146.8044  162.2248 H       1  UNL1        0.2105
     21 C         140.1240  141.9113  160.1969 C.3     1  UNL1        0.0772
     22 C         141.2745  141.0765  160.6761 C.3     1  UNL1        0.0453
     23 C         141.0176  139.8340  161.4763 C.2     1  UNL1       -0.0005
     24 C         140.2187  138.6462  161.0281 C.2     1  UNL1        0.0942
     25 N         140.2218  137.6393  162.1400 N.2     1  UNL1       -0.2482
     26 C         141.0226  138.2049  163.2753 C.2     1  UNL1        0.0631
     27 C         141.3675  137.6600  164.6295 C.3     1  UNL1        0.0717
     28 C         142.2042  138.4715  165.5736 C.2     1  UNL1       -0.0198
     29 C         142.6960  139.8279  165.1634 C.2     1  UNL1       -0.0042
     30 C         142.3511  140.3728  163.8091 C.2     1  UNL1        0.0006
     31 C         141.5144  139.5613  162.8651 C.2     1  UNL1        0.0114
@<TRIPOS>BOND
     1    11    12    2
     2    12     9    1
     3     9    10    2
     4    10     3    1
     5     3     4   ar
     6     4     5   ar
     7     5     6   ar
     8     6     2    1
     9     2     1    1
    10     1    17    1
    11    17    18    1
    12    18    19    1
    13     1    21    1
    14    21    22    1
    15    22    23    1
    16    23    24    2
    17    24    25    1
    18    25    26    2
    19    26    27    1
    20    27    28    1
    21    28    29    2
    22    29    30    1
    23    30    31    2
    24     6     7   ar
    25     7     8   ar
    26    12    13   am
    27    13    14    1
    28     8     3   ar
    29    31    23    1
    30    31    26    1
    31    19    20    1
    32    13    15    1
    33    14    16    1
@<TRIPOS>MOLECULE
*****
 31 33 0 0 0
SMALL
GASTEIGER

@<TRIPOS>ATOM
      1 N         141.2789  143.5440  161.5571 N.3     1  UNL1       -0.2665
      2 C         142.0431  143.9350  162.7872 C.3     1  UNL1        0.0992
      3 C         141.2570  141.8326  166.6875 C.ar    1  UNL1        0.0001
      4 C         140.2473  142.7963  166.1381 C.ar    1  UNL1       -0.0003
      5 C         140.5093  143.4971  164.8380 C.ar    1  UNL1       -0.0029
      6 C         141.7810  143.2342  164.0872 C.ar    1  UNL1       -0.0061
      7 C         142.7908  142.2705  164.6366 C.ar    1  UNL1       -0.0029
      8 C         142.5287  141.5697  165.9367 C.ar    1  UNL1       -0.0003
      9 C         140.5737  141.9195  169.1925 C.2     1  UNL1        0.0598
     10 C         140.9950  141.1318  167.9875 C.2     1  UNL1        0.0047
     11 O         140.4949  141.9506  171.7892 O.2     1  UNL1       -0.2681
     12 C         140.3117  141.2188  170.4927 C.2     1  UNL1        0.2679
     13 N         139.8664  139.7865  170.4963 N.am    1  UNL1       -0.1934
     14 O         139.6044  139.0858  171.7965 O.3     1  UNL1       -0.2949
     15 H         139.7462  139.3062  169.6454 H       1  UNL1        0.1825
     16 H         139.7691  139.6966  172.5318 H       1  UNL1        0.2414
     17 C         140.3342  144.5190  160.9194 C.3     1  UNL1        0.1045
     18 C         139.6712  145.5755  161.7526 C.3     1  UNL1        0.1544
     19 O         138.2905  145.3478  162.2928 O.3     1  UNL1       -0.3805
     20 H         137.6593  145.3010  161.5578 H       1  UNL1        0.2105
     21 C         141.4594  142.1777  160.9648 C.3     1  UNL1        0.0772
     22 C         140.2871  141.2488  160.8507 C.3     1  UNL1        0.0453
     23 C         139.3084  141.1339  161.9816 C.2     1  UNL1       -0.0005
     24 C         137.9976  141.8551  162.0899 C.2     1  UNL1        0.0942
     25 N         137.3478  141.4446  163.3780 N.2     1  UNL1       -0.2482
     26 C         138.2569  140.4696  164.0658 C.2     1  UNL1        0.0631
     27 C         138.1379  139.7319  165.3663 C.3     1  UNL1        0.0717
     28 C         139.2307  138.8022  165.8039 C.2     1  UNL1       -0.0198
     29 C         140.4424  138.6102  164.9408 C.2     1  UNL1       -0.0042
     30 C         140.5614  139.3479  163.6403 C.2     1  UNL1        0.0006
     31 C         139.4687  140.2776  163.2027 C.2     1  UNL1        0.0114
@<TRIPOS>BOND
     1    11    12    2
     2    12     9    1
     3     9    10    2
     4    10     3    1
     5     3     4   ar
     6     4     5   ar
     7     5     6   ar
     8     6     2    1
     9     2     1    1
    10     1    17    1
    11    17    18    1
    12    18    19    1
    13     1    21    1
    14    21    22    1
    15    22    23    1
    16    23    24    2
    17    24    25    1
    18    25    26    2
    19    26    27    1
    20    27    28    1
    21    28    29    2
    22    29    30    1
    23    30    31    2
    24     6     7   ar
    25     7     8   ar
    26    12    13   am
    27    13    14    1
    28     8     3   ar
    29    31    23    1
    30    31    26    1
    31    19    20    1
    32    13    15    1
    33    14    16    1
@<TRIPOS>MOLECULE
*****
 31 33 0 0 0
SMALL
GASTEIGER

@<TRIPOS>ATOM
      1 N         141.0540  137.7221  162.4181 N.3     1  UNL1       -0.2665
      2 C         141.3722  137.3145  163.8261 C.3     1  UNL1        0.0992
      3 C         141.7176  140.4365  167.0486 C.ar    1  UNL1        0.0001
      4 C         142.9380  139.9992  166.2940 C.ar    1  UNL1       -0.0003
      5 C         142.8230  138.9585  165.2199 C.ar    1  UNL1       -0.0029
      6 C         141.4874  138.3551  164.9003 C.ar    1  UNL1       -0.0061
      7 C         140.2669  138.7924  165.6549 C.ar    1  UNL1       -0.0029
      8 C         140.3820  139.8330  166.7290 C.ar    1  UNL1       -0.0003
      9 C         142.3934  141.1107  169.4649 C.2     1  UNL1        0.0598
     10 C         141.8328  141.4771  168.1228 C.2     1  UNL1        0.0047
     11 O         141.5786  142.1208  171.7156 O.2     1  UNL1       -0.2681
     12 C         142.5086  142.1513  170.5391 C.2     1  UNL1        0.2679
     13 N         143.5537  143.2224  170.4369 N.am    1  UNL1       -0.1934
     14 O         143.6689  144.2629  171.5111 O.3     1  UNL1       -0.2949
     15 H         144.1642  143.2424  169.6647 H       1  UNL1        0.1825
     16 H         142.9984  144.0994  172.1928 H       1  UNL1        0.2414
     17 C         142.1538  137.8425  161.4053 C.3     1  UNL1        0.1045
     18 C         143.5769  137.9868  161.8570 C.3     1  UNL1        0.1544
     19 O         144.5630  138.7282  161.0039 O.3     1  UNL1       -0.3805
     20 H         144.7039  138.2425  160.1762 H       1  UNL1        0.2105
     21 C         139.6357  138.0093  162.0230 C.3     1  UNL1        0.0772
     22 C         139.2327  139.4009  161.6339 C.3     1  UNL1        0.0453
     23 C         139.0281  140.4455  162.6908 C.2     1  UNL1       -0.0005
     24 C         137.7347  140.7575  163.3834 C.2     1  UNL1        0.0942
     25 N         137.9884  141.8664  164.3612 N.2     1  UNL1       -0.2482
     26 C         139.4385  142.2398  164.2728 C.2     1  UNL1        0.0631
     27 C         140.2568  143.2659  164.9990 C.3     1  UNL1        0.0717
     28 C         141.7177  143.4139  164.6927 C.2     1  UNL1       -0.0198
     29 C         142.3603  142.5357  163.6603 C.2     1  UNL1       -0.0042
     30 C         141.5420  141.5096  162.9342 C.2     1  UNL1        0.0006
     31 C         140.0811  141.3616  163.2404 C.2     1  UNL1        0.0114
@<TRIPOS>BOND
     1    11    12    2
     2    12     9    1
     3     9    10    2
     4    10     3    1
     5     3     4   ar
     6     4     5   ar
     7     5     6   ar
     8     6     2    1
     9     2     1    1
    10     1    17    1
    11    17    18    1
    12    18    19    1
    13     1    21    1
    14    21    22    1
    15    22    23    1
    16    23    24    2
    17    24    25    1
    18    25    26    2
    19    26    27    1
    20    27    28    1
    21    28    29    2
    22    29    30    1
    23    30    31    2
    24     6     7   ar
    25     7     8   ar
    26    12    13   am
    27    13    14    1
    28     8     3   ar
    29    31    23    1
    30    31    26    1
    31    19    20    1
    32    13    15    1
    33    14    16    1
