@<TRIPOS>MOLECULE
*****
 36 39 0 0 0
SMALL
GASTEIGER

@<TRIPOS>ATOM
      1 C         141.7210  143.8673  160.7400 C.ar    1  UNL1        0.0183
      2 C         142.3521  142.5094  160.8269 C.ar    1  UNL1        0.0017
      3 C         142.7425  141.9479  162.1619 C.ar    1  UNL1        0.0046
      4 C         142.5018  142.7443  163.4100 C.ar    1  UNL1        0.0537
      5 C         141.8706  144.1023  163.3230 C.ar    1  UNL1        0.0046
      6 C         141.4802  144.6637  161.9881 C.ar    1  UNL1        0.0017
      7 C         140.5497  145.5520  156.7349 C.ar    1  UNL1        0.0137
      8 C         141.8035  146.0242  157.4096 C.ar    1  UNL1        0.0959
      9 N         142.1939  145.4626  158.7446 N.ar    1  UNL1       -0.2434
     10 C         141.3305  144.4289  159.4049 C.ar    1  UNL1        0.0908
     11 C         140.0768  143.9567  158.7303 C.ar    1  UNL1        0.0858
     12 C         139.6864  144.5183  157.3952 C.ar    1  UNL1        0.0104
     13 C         139.2135  142.9229  159.3906 C.1     1  UNL1        0.1019
     14 N         138.3502  141.8892  160.0509 N.1     1  UNL1       -0.1908
     15 C         140.1594  146.1136  155.3999 C.3     1  UNL1        0.1008
     16 N         138.9915  150.4440  155.0349 N.3     1  UNL1       -0.2703
     17 C         139.9064  149.8258  154.0197 C.3     1  UNL1        0.0897
     18 C         140.2957  148.3824  154.1414 C.3     1  UNL1        0.0899
     19 N         139.7701  147.5571  155.2783 N.3     1  UNL1       -0.2665
     20 C         138.8551  148.1753  156.2935 C.3     1  UNL1        0.0899
     21 C         138.4658  149.6187  156.1718 C.3     1  UNL1        0.0897
     22 C         138.4089  152.5005  153.5580 C.3     1  UNL1        0.0188
     23 C         138.6022  151.8875  154.9133 C.3     1  UNL1        0.0722
     24 C         142.8922  142.1827  164.7450 C.2     1  UNL1        0.2495
     25 O         144.2641  141.6104  164.9457 O.2     1  UNL1       -0.2698
     26 N         141.9107  142.1935  165.8793 N.am    1  UNL1       -0.2794
     27 H         141.0103  142.5692  165.7475 H       1  UNL1        0.1552
     28 C         142.3012  141.6320  167.2142 C.ar    1  UNL1        0.0636
     29 C         143.0378  142.4880  168.2016 C.ar    1  UNL1        0.0159
     30 C         143.4282  141.9264  169.5366 C.ar    1  UNL1        0.0014
     31 C         143.0822  140.5089  169.8842 C.ar    1  UNL1        0.0013
     32 C         142.3457  139.6529  168.8969 C.ar    1  UNL1        0.0153
     33 C         141.9552  140.2144  167.5619 C.ar    1  UNL1        0.0552
     34 N         141.2187  139.3585  166.5746 N.pl3   1  UNL1       -0.3560
     35 H         140.9915  138.4281  166.8028 H       1  UNL1        0.1424
     36 H         140.9624  139.7270  165.6984 H       1  UNL1        0.1424
@<TRIPOS>BOND
     1    22    23    1
     2    23    16    1
     3    16    17    1
     4    17    18    1
     5    18    19    1
     6    19    15    1
     7    15     7    1
     8     7     8   ar
     9     8     9   ar
    10     9    10   ar
    11    10     1    1
    12     1     2   ar
    13     2     3   ar
    14     3     4   ar
    15     4    24    1
    16    24    25    2
    17    24    26   am
    18    26    28    1
    19    28    29   ar
    20    29    30   ar
    21    30    31   ar
    22    31    32   ar
    23    32    33   ar
    24    33    34    1
    25     4     5   ar
    26     5     6   ar
    27    10    11   ar
    28    11    13    1
    29    13    14    3
    30    11    12   ar
    31    19    20    1
    32    20    21    1
    33    21    16    1
    34    12     7   ar
    35     6     1   ar
    36    33    28   ar
    37    26    27    1
    38    34    35    1
    39    34    36    1
@<TRIPOS>MOLECULE
*****
 36 39 0 0 0
SMALL
GASTEIGER

@<TRIPOS>ATOM
      1 C         140.9799  138.9139  161.9937 C.ar    1  UNL1        0.0183
      2 C         141.2238  140.3224  162.4479 C.ar    1  UNL1        0.0017
      3 C         141.0438  140.6867  163.8918 C.ar    1  UNL1        0.0046
      4 C         140.6199  139.6423  164.8815 C.ar    1  UNL1        0.0537
      5 C         140.3760  138.2337  164.4273 C.ar    1  UNL1        0.0046
      6 C         140.5560  137.8695  162.9834 C.ar    1  UNL1        0.0017
      7 C         141.5199  137.8210  157.6619 C.ar    1  UNL1        0.0137
      8 C         142.6684  137.6882  158.6177 C.ar    1  UNL1        0.0959
      9 N         142.4883  138.0525  160.0616 N.ar    1  UNL1       -0.2434
     10 C         141.1599  138.5496  160.5497 C.ar    1  UNL1        0.0908
     11 C         140.0115  138.6824  159.5940 C.ar    1  UNL1        0.0858
     12 C         140.1915  138.3181  158.1500 C.ar    1  UNL1        0.0104
     13 C         138.6831  139.1794  160.0821 C.1     1  UNL1        0.1019
     14 N         137.3547  139.6765  160.5702 N.1     1  UNL1       -0.1908
     15 C         141.7000  137.4567  156.2180 C.3     1  UNL1        0.1008
     16 N         142.9067  133.2717  155.0868 N.3     1  UNL1       -0.2703
     17 C         143.9010  134.1901  155.7333 C.3     1  UNL1        0.0897
     18 C         143.4987  135.5851  156.1103 C.3     1  UNL1        0.0899
     19 N         142.1022  136.0617  155.8409 N.3     1  UNL1       -0.2665
     20 C         141.1080  135.1433  155.1945 C.3     1  UNL1        0.0899
     21 C         141.5102  133.7483  154.8175 C.3     1  UNL1        0.0897
     22 C         144.3636  131.1607  155.5003 C.3     1  UNL1        0.0188
     23 C         143.3089  131.8767  154.7098 C.3     1  UNL1        0.0722
     24 C         140.4399  140.0066  166.3255 C.2     1  UNL1        0.2495
     25 O         139.2509  139.4971  167.0849 O.2     1  UNL1       -0.2698
     26 N         141.4489  140.8803  167.0099 N.am    1  UNL1       -0.2794
     27 H         142.2292  141.2147  166.5115 H       1  UNL1        0.1552
     28 C         141.2688  141.2446  168.4538 C.ar    1  UNL1        0.0636
     29 C         140.4039  142.4107  168.8310 C.ar    1  UNL1        0.0159
     30 C         140.2239  142.7749  170.2749 C.ar    1  UNL1        0.0014
     31 C         140.9087  141.9731  171.3417 C.ar    1  UNL1        0.0013
     32 C         141.7736  140.8070  170.9646 C.ar    1  UNL1        0.0153
     33 C         141.9536  140.4427  169.5206 C.ar    1  UNL1        0.0552
     34 N         142.8185  139.2766  169.1436 N.pl3   1  UNL1       -0.3560
     35 H         143.2680  138.7504  169.8437 H       1  UNL1        0.1424
     36 H         142.9367  139.0375  168.1959 H       1  UNL1        0.1424
@<TRIPOS>BOND
     1    22    23    1
     2    23    16    1
     3    16    17    1
     4    17    18    1
     5    18    19    1
     6    19    15    1
     7    15     7    1
     8     7     8   ar
     9     8     9   ar
    10     9    10   ar
    11    10     1    1
    12     1     2   ar
    13     2     3   ar
    14     3     4   ar
    15     4    24    1
    16    24    25    2
    17    24    26   am
    18    26    28    1
    19    28    29   ar
    20    29    30   ar
    21    30    31   ar
    22    31    32   ar
    23    32    33   ar
    24    33    34    1
    25     4     5   ar
    26     5     6   ar
    27    10    11   ar
    28    11    13    1
    29    13    14    3
    30    11    12   ar
    31    19    20    1
    32    20    21    1
    33    21    16    1
    34    12     7   ar
    35     6     1   ar
    36    33    28   ar
    37    26    27    1
    38    34    35    1
    39    34    36    1
@<TRIPOS>MOLECULE
*****
 36 39 0 0 0
SMALL
GASTEIGER

@<TRIPOS>ATOM
      1 C         143.3801  142.0215  161.9191 C.ar    1  UNL1        0.0183
      2 C         141.9989  141.8796  162.4866 C.ar    1  UNL1        0.0017
      3 C         141.7880  141.9394  163.9705 C.ar    1  UNL1        0.0046
      4 C         142.9583  142.1410  164.8869 C.ar    1  UNL1        0.0537
      5 C         144.3395  142.2828  164.3194 C.ar    1  UNL1        0.0046
      6 C         144.5504  142.2231  162.8355 C.ar    1  UNL1        0.0017
      7 C         144.0130  141.8422  157.4674 C.ar    1  UNL1        0.0137
      8 C         143.7308  143.1568  158.1326 C.ar    1  UNL1        0.0959
      9 N         143.5199  143.2165  159.6164 N.ar    1  UNL1       -0.2434
     10 C         143.5911  141.9617  160.4352 C.ar    1  UNL1        0.0908
     11 C         143.8732  140.6472  159.7701 C.ar    1  UNL1        0.0858
     12 C         144.0842  140.5874  158.2862 C.ar    1  UNL1        0.0104
     13 C         143.9443  139.3924  160.5889 C.1     1  UNL1        0.1019
     14 N         144.0155  138.1376  161.4076 N.1     1  UNL1       -0.1908
     15 C         144.2239  141.7825  155.9835 C.3     1  UNL1        0.1008
     16 N         148.3902  141.9743  154.2937 N.3     1  UNL1       -0.2703
     17 C         148.1733  142.1110  155.7715 C.3     1  UNL1        0.0897
     18 C         146.7845  142.0471  156.3348 C.3     1  UNL1        0.0899
     19 N         145.6127  141.8464  155.4203 N.3     1  UNL1       -0.2665
     20 C         145.8296  141.7097  153.9424 C.3     1  UNL1        0.0899
     21 C         147.2184  141.7736  153.3791 C.3     1  UNL1        0.0897
     22 C         150.9533  141.6667  154.5864 C.3     1  UNL1        0.0188
     23 C         149.7789  142.0382  153.7304 C.3     1  UNL1        0.0722
     24 C         142.7473  142.2007  166.3708 C.2     1  UNL1        0.2495
     25 O         143.7577  142.8824  167.2451 O.2     1  UNL1       -0.2698
     26 N         141.5260  141.5789  166.9804 N.am    1  UNL1       -0.2794
     27 H         140.8628  141.1315  166.4065 H       1  UNL1        0.1552
     28 C         141.3151  141.6386  168.4642 C.ar    1  UNL1        0.0636
     29 C         140.4375  142.7023  169.0548 C.ar    1  UNL1        0.0159
     30 C         140.2266  142.7620  170.5387 C.ar    1  UNL1        0.0014
     31 C         140.8932  141.7582  171.4320 C.ar    1  UNL1        0.0013
     32 C         141.7707  140.6947  170.8415 C.ar    1  UNL1        0.0153
     33 C         141.9816  140.6348  169.3576 C.ar    1  UNL1        0.0552
     34 N         142.8591  139.5713  168.7670 N.pl3   1  UNL1       -0.3560
     35 H         143.2966  138.9124  169.3534 H       1  UNL1        0.1424
     36 H         142.9976  139.5320  167.7931 H       1  UNL1        0.1424
@<TRIPOS>BOND
     1    22    23    1
     2    23    16    1
     3    16    17    1
     4    17    18    1
     5    18    19    1
     6    19    15    1
     7    15     7    1
     8     7     8   ar
     9     8     9   ar
    10     9    10   ar
    11    10     1    1
    12     1     2   ar
    13     2     3   ar
    14     3     4   ar
    15     4    24    1
    16    24    25    2
    17    24    26   am
    18    26    28    1
    19    28    29   ar
    20    29    30   ar
    21    30    31   ar
    22    31    32   ar
    23    32    33   ar
    24    33    34    1
    25     4     5   ar
    26     5     6   ar
    27    10    11   ar
    28    11    13    1
    29    13    14    3
    30    11    12   ar
    31    19    20    1
    32    20    21    1
    33    21    16    1
    34    12     7   ar
    35     6     1   ar
    36    33    28   ar
    37    26    27    1
    38    34    35    1
    39    34    36    1
@<TRIPOS>MOLECULE
*****
 36 39 0 0 0
SMALL
GASTEIGER

@<TRIPOS>ATOM
      1 C         141.3456  143.4428  161.1544 C.ar    1  UNL1        0.0183
      2 C         140.6812  143.9877  162.3838 C.ar    1  UNL1        0.0017
      3 C         141.0017  143.4074  163.7293 C.ar    1  UNL1        0.0046
      4 C         141.9867  142.2821  163.8453 C.ar    1  UNL1        0.0537
      5 C         142.6512  141.7371  162.6159 C.ar    1  UNL1        0.0046
      6 C         142.3306  142.3175  161.2704 C.ar    1  UNL1        0.0017
      7 C         140.3841  145.1839  157.1177 C.ar    1  UNL1        0.0137
      8 C         141.5145  145.7468  157.9274 C.ar    1  UNL1        0.0959
      9 N         141.8349  145.1664  159.2729 N.ar    1  UNL1       -0.2434
     10 C         141.0251  144.0232  159.8088 C.ar    1  UNL1        0.0908
     11 C         139.8948  143.4603  158.9992 C.ar    1  UNL1        0.0858
     12 C         139.5742  144.0407  157.6536 C.ar    1  UNL1        0.0104
     13 C         139.0849  142.3171  159.5351 C.1     1  UNL1        0.1019
     14 N         138.2751  141.1738  160.0710 N.1     1  UNL1       -0.1908
     15 C         140.0636  145.7643  155.7722 C.3     1  UNL1        0.1008
     16 N         138.8746  150.0894  155.4126 N.3     1  UNL1       -0.2703
     17 C         138.4951  149.3064  156.6344 C.3     1  UNL1        0.0897
     18 C         138.8915  147.8646  156.7543 C.3     1  UNL1        0.0899
     19 N         139.6673  147.2060  155.6523 N.3     1  UNL1       -0.2665
     20 C         140.0468  147.9891  154.4306 C.3     1  UNL1        0.0899
     21 C         139.6504  149.4308  154.3107 C.3     1  UNL1        0.0897
     22 C         138.8444  152.3100  154.0642 C.3     1  UNL1        0.0188
     23 C         138.4783  151.5311  155.2928 C.3     1  UNL1        0.0722
     24 C         142.3073  141.7017  165.1909 C.2     1  UNL1        0.2495
     25 O         143.2890  140.5735  165.3065 O.2     1  UNL1       -0.2698
     26 N         141.6461  142.2496  166.4208 N.am    1  UNL1       -0.2794
     27 H         141.0018  142.9900  166.3449 H       1  UNL1        0.1552
     28 C         141.9667  141.6692  167.7663 C.ar    1  UNL1        0.0636
     29 C         143.1170  142.2110  168.5621 C.ar    1  UNL1        0.0159
     30 C         143.4376  141.6306  169.9076 C.ar    1  UNL1        0.0014
     31 C         142.6078  140.5085  170.4573 C.ar    1  UNL1        0.0013
     32 C         141.4576  139.9666  169.6616 C.ar    1  UNL1        0.0153
     33 C         141.1369  140.5470  168.3160 C.ar    1  UNL1        0.0552
     34 N         139.9867  140.0052  167.5203 N.pl3   1  UNL1       -0.3560
     35 H         139.4421  139.2686  167.8811 H       1  UNL1        0.1424
     36 H         139.7762  140.3861  166.6372 H       1  UNL1        0.1424
@<TRIPOS>BOND
     1    22    23    1
     2    23    16    1
     3    16    17    1
     4    17    18    1
     5    18    19    1
     6    19    15    1
     7    15     7    1
     8     7     8   ar
     9     8     9   ar
    10     9    10   ar
    11    10     1    1
    12     1     2   ar
    13     2     3   ar
    14     3     4   ar
    15     4    24    1
    16    24    25    2
    17    24    26   am
    18    26    28    1
    19    28    29   ar
    20    29    30   ar
    21    30    31   ar
    22    31    32   ar
    23    32    33   ar
    24    33    34    1
    25     4     5   ar
    26     5     6   ar
    27    10    11   ar
    28    11    13    1
    29    13    14    3
    30    11    12   ar
    31    19    20    1
    32    20    21    1
    33    21    16    1
    34    12     7   ar
    35     6     1   ar
    36    33    28   ar
    37    26    27    1
    38    34    35    1
    39    34    36    1
@<TRIPOS>MOLECULE
*****
 36 39 0 0 0
SMALL
GASTEIGER

@<TRIPOS>ATOM
      1 C         140.9694  139.3412  161.2752 C.ar    1  UNL1        0.0183
      2 C         140.3074  138.5299  162.3492 C.ar    1  UNL1        0.0017
      3 C         140.0432  139.1393  163.6940 C.ar    1  UNL1        0.0046
      4 C         140.4410  140.5600  163.9649 C.ar    1  UNL1        0.0537
      5 C         141.1031  141.3713  162.8909 C.ar    1  UNL1        0.0046
      6 C         141.3673  140.7618  161.5460 C.ar    1  UNL1        0.0017
      7 C         141.7621  137.5129  157.2403 C.ar    1  UNL1        0.0137
      8 C         142.8162  137.4633  158.3065 C.ar    1  UNL1        0.0959
      9 N         142.5520  138.0727  159.6514 N.ar    1  UNL1       -0.2434
     10 C         141.2337  138.7317  159.9302 C.ar    1  UNL1        0.0908
     11 C         140.1796  138.7814  158.8642 C.ar    1  UNL1        0.0858
     12 C         140.4438  138.1720  157.5192 C.ar    1  UNL1        0.0104
     13 C         138.8613  139.4404  159.1430 C.1     1  UNL1        0.1019
     14 N         137.5430  140.0995  159.4218 N.1     1  UNL1       -0.1908
     15 C         142.0264  136.9035  155.8955 C.3     1  UNL1        0.1008
     16 N         142.9573  132.5138  155.5580 N.3     1  UNL1       -0.2703
     17 C         141.5919  133.0207  155.1990 C.3     1  UNL1        0.0897
     18 C         141.2817  134.4839  155.3115 C.3     1  UNL1        0.0899
     19 N         142.3367  135.4403  155.7830 N.3     1  UNL1       -0.2665
     20 C         143.7020  134.9333  156.1419 C.3     1  UNL1        0.0899
     21 C         144.0123  133.4701  156.0294 C.3     1  UNL1        0.0897
     22 C         142.9216  130.1218  156.5713 C.3     1  UNL1        0.0188
     23 C         143.2676  131.0506  155.4455 C.3     1  UNL1        0.0722
     24 C         140.1768  141.1694  165.3099 C.2     1  UNL1        0.2495
     25 O         139.1457  142.2492  165.4545 O.2     1  UNL1       -0.2698
     26 N         140.9436  140.6991  166.5101 N.am    1  UNL1       -0.2794
     27 H         141.6204  139.9904  166.4152 H       1  UNL1        0.1552
     28 C         140.6794  141.3085  167.8550 C.ar    1  UNL1        0.0636
     29 C         141.4432  142.5237  168.2910 C.ar    1  UNL1        0.0159
     30 C         141.1789  143.1331  169.6358 C.ar    1  UNL1        0.0014
     31 C         140.1509  142.5274  170.5448 C.ar    1  UNL1        0.0013
     32 C         139.3871  141.3122  170.1090 C.ar    1  UNL1        0.0153
     33 C         139.6514  140.7028  168.7640 C.ar    1  UNL1        0.0552
     34 N         138.8876  139.4876  168.3281 N.pl3   1  UNL1       -0.3560
     35 H         138.2129  139.0901  168.9248 H       1  UNL1        0.1424
     36 H         139.0610  139.0876  167.4454 H       1  UNL1        0.1424
@<TRIPOS>BOND
     1    22    23    1
     2    23    16    1
     3    16    17    1
     4    17    18    1
     5    18    19    1
     6    19    15    1
     7    15     7    1
     8     7     8   ar
     9     8     9   ar
    10     9    10   ar
    11    10     1    1
    12     1     2   ar
    13     2     3   ar
    14     3     4   ar
    15     4    24    1
    16    24    25    2
    17    24    26   am
    18    26    28    1
    19    28    29   ar
    20    29    30   ar
    21    30    31   ar
    22    31    32   ar
    23    32    33   ar
    24    33    34    1
    25     4     5   ar
    26     5     6   ar
    27    10    11   ar
    28    11    13    1
    29    13    14    3
    30    11    12   ar
    31    19    20    1
    32    20    21    1
    33    21    16    1
    34    12     7   ar
    35     6     1   ar
    36    33    28   ar
    37    26    27    1
    38    34    35    1
    39    34    36    1
@<TRIPOS>MOLECULE
*****
 36 39 0 0 0
SMALL
GASTEIGER

@<TRIPOS>ATOM
      1 C         141.6769  138.9391  161.9295 C.ar    1  UNL1        0.0183
      2 C         141.7117  140.3637  162.3977 C.ar    1  UNL1        0.0017
      3 C         141.8309  140.6694  163.8613 C.ar    1  UNL1        0.0046
      4 C         141.9153  139.5505  164.8568 C.ar    1  UNL1        0.0537
      5 C         141.8806  138.1259  164.3886 C.ar    1  UNL1        0.0046
      6 C         141.7613  137.8202  162.9250 C.ar    1  UNL1        0.0017
      7 C         141.3192  138.0219  157.5385 C.ar    1  UNL1        0.0137
      8 C         142.6733  138.1885  158.1620 C.ar    1  UNL1        0.0959
      9 N         142.7925  138.4943  159.6257 N.ar    1  UNL1       -0.2434
     10 C         141.5577  138.6334  160.4658 C.ar    1  UNL1        0.0908
     11 C         140.2036  138.4668  159.8423 C.ar    1  UNL1        0.0858
     12 C         140.0844  138.1610  158.3786 C.ar    1  UNL1        0.0104
     13 C         138.9688  138.6059  160.6824 C.1     1  UNL1        0.1019
     14 N         137.7339  138.7450  161.5225 N.1     1  UNL1       -0.1908
     15 C         141.2001  137.7161  156.0748 C.3     1  UNL1        0.1008
     16 N         141.9922  133.5480  154.5751 N.3     1  UNL1       -0.2703
     17 C         142.5148  133.9751  155.9147 C.3     1  UNL1        0.0897
     18 C         142.2508  135.3644  156.4146 C.3     1  UNL1        0.0899
     19 N         141.4641  136.3268  155.5749 N.3     1  UNL1       -0.2665
     20 C         140.9415  135.8997  154.2354 C.3     1  UNL1        0.0899
     21 C         141.2056  134.5103  153.7355 C.3     1  UNL1        0.0897
     22 C         141.4451  131.0083  154.5935 C.3     1  UNL1        0.0188
     23 C         142.2563  132.1586  154.0752 C.3     1  UNL1        0.0722
     24 C         142.0346  139.8563  166.3205 C.2     1  UNL1        0.2495
     25 O         142.8853  138.9895  167.2009 O.2     1  UNL1       -0.2698
     26 N         141.3031  141.0288  166.9038 N.am    1  UNL1       -0.2794
     27 H         140.7448  141.5976  166.3260 H       1  UNL1        0.1552
     28 C         141.4224  141.3345  168.3674 C.ar    1  UNL1        0.0636
     29 C         142.4926  142.2659  168.8543 C.ar    1  UNL1        0.0159
     30 C         142.6119  142.5716  170.3179 C.ar    1  UNL1        0.0014
     31 C         141.6609  141.9459  171.2948 C.ar    1  UNL1        0.0013
     32 C         140.5907  141.0145  170.8079 C.ar    1  UNL1        0.0153
     33 C         140.4714  140.7087  169.3442 C.ar    1  UNL1        0.0552
     34 N         139.4012  139.7773  168.8574 N.pl3   1  UNL1       -0.3560
     35 H         138.7771  139.3667  169.4985 H       1  UNL1        0.1424
     36 H         139.3229  139.5767  167.8968 H       1  UNL1        0.1424
@<TRIPOS>BOND
     1    22    23    1
     2    23    16    1
     3    16    17    1
     4    17    18    1
     5    18    19    1
     6    19    15    1
     7    15     7    1
     8     7     8   ar
     9     8     9   ar
    10     9    10   ar
    11    10     1    1
    12     1     2   ar
    13     2     3   ar
    14     3     4   ar
    15     4    24    1
    16    24    25    2
    17    24    26   am
    18    26    28    1
    19    28    29   ar
    20    29    30   ar
    21    30    31   ar
    22    31    32   ar
    23    32    33   ar
    24    33    34    1
    25     4     5   ar
    26     5     6   ar
    27    10    11   ar
    28    11    13    1
    29    13    14    3
    30    11    12   ar
    31    19    20    1
    32    20    21    1
    33    21    16    1
    34    12     7   ar
    35     6     1   ar
    36    33    28   ar
    37    26    27    1
    38    34    35    1
    39    34    36    1
@<TRIPOS>MOLECULE
*****
 36 39 0 0 0
SMALL
GASTEIGER

@<TRIPOS>ATOM
      1 C         142.8874  141.6217  160.1714 C.ar    1  UNL1        0.0183
      2 C         143.6160  142.8774  159.7944 C.ar    1  UNL1        0.0017
      3 C         144.5673  142.8730  158.6347 C.ar    1  UNL1        0.0046
      4 C         144.7900  141.6129  157.8520 C.ar    1  UNL1        0.0537
      5 C         144.0613  140.3572  158.2290 C.ar    1  UNL1        0.0046
      6 C         143.1100  140.3616  159.3887 C.ar    1  UNL1        0.0017
      7 C         140.0333  141.6347  163.6506 C.ar    1  UNL1        0.0137
      8 C         139.5177  141.8380  162.2567 C.ar    1  UNL1        0.0959
      9 N         140.4691  141.8337  161.0970 N.ar    1  UNL1       -0.2434
     10 C         141.9360  141.6260  161.3312 C.ar    1  UNL1        0.0908
     11 C         142.4517  141.4226  162.7249 C.ar    1  UNL1        0.0858
     12 C         141.5003  141.4270  163.8847 C.ar    1  UNL1        0.0104
     13 C         143.9187  141.2150  162.9591 C.1     1  UNL1        0.1019
     14 N         145.3857  141.0073  163.1932 N.1     1  UNL1       -0.1908
     15 C         139.0820  141.6390  164.8103 C.3     1  UNL1        0.1008
     16 N         140.6263  141.0091  168.9898 N.3     1  UNL1       -0.2703
     17 C         140.7799  142.3459  168.3270 C.3     1  UNL1        0.0897
     18 C         140.2651  142.5558  166.9338 C.3     1  UNL1        0.0899
     19 N         139.5968  141.4290  166.2034 N.3     1  UNL1       -0.2665
     20 C         139.4431  140.0922  166.8662 C.3     1  UNL1        0.0899
     21 C         139.9579  139.8823  168.2594 C.3     1  UNL1        0.0897
     22 C         141.8572  141.9093  171.0932 C.3     1  UNL1        0.0188
     23 C         141.1410  140.7991  170.3830 C.3     1  UNL1        0.0722
     24 C         145.7413  141.6086  156.6922 C.2     1  UNL1        0.2495
     25 O         145.6661  140.5185  155.6646 O.2     1  UNL1       -0.2698
     26 N         146.7678  142.6943  156.5601 N.am    1  UNL1       -0.2794
     27 H         146.8172  143.4098  157.2346 H       1  UNL1        0.1552
     28 C         147.7191  142.6900  155.4004 C.ar    1  UNL1        0.0636
     29 C         148.9122  141.7809  155.4124 C.ar    1  UNL1        0.0159
     30 C         149.8635  141.7765  154.2527 C.ar    1  UNL1        0.0014
     31 C         149.6217  142.6812  153.0809 C.ar    1  UNL1        0.0013
     32 C         148.4287  143.5902  153.0688 C.ar    1  UNL1        0.0153
     33 C         147.4773  143.5946  154.2286 C.ar    1  UNL1        0.0552
     34 N         146.2842  144.5037  154.2165 N.pl3   1  UNL1       -0.3560
     35 H         146.1256  145.0974  153.4474 H       1  UNL1        0.1424
     36 H         145.6599  144.5066  154.9777 H       1  UNL1        0.1424
@<TRIPOS>BOND
     1    22    23    1
     2    23    16    1
     3    16    17    1
     4    17    18    1
     5    18    19    1
     6    19    15    1
     7    15     7    1
     8     7     8   ar
     9     8     9   ar
    10     9    10   ar
    11    10     1    1
    12     1     2   ar
    13     2     3   ar
    14     3     4   ar
    15     4    24    1
    16    24    25    2
    17    24    26   am
    18    26    28    1
    19    28    29   ar
    20    29    30   ar
    21    30    31   ar
    22    31    32   ar
    23    32    33   ar
    24    33    34    1
    25     4     5   ar
    26     5     6   ar
    27    10    11   ar
    28    11    13    1
    29    13    14    3
    30    11    12   ar
    31    19    20    1
    32    20    21    1
    33    21    16    1
    34    12     7   ar
    35     6     1   ar
    36    33    28   ar
    37    26    27    1
    38    34    35    1
    39    34    36    1
@<TRIPOS>MOLECULE
*****
 36 39 0 0 0
SMALL
GASTEIGER

@<TRIPOS>ATOM
      1 C         142.7435  139.7364  159.4876 C.ar    1  UNL1        0.0183
      2 C         142.7435  139.0190  158.1703 C.ar    1  UNL1        0.0017
      3 C         143.6386  139.4872  157.0614 C.ar    1  UNL1        0.0046
      4 C         144.5336  140.6727  157.2699 C.ar    1  UNL1        0.0537
      5 C         144.5336  141.3900  158.5872 C.ar    1  UNL1        0.0046
      6 C         143.6385  140.9219  159.6961 C.ar    1  UNL1        0.0017
      7 C         140.0582  138.3319  162.8144 C.ar    1  UNL1        0.0137
      8 C         141.3583  137.6307  162.5531 C.ar    1  UNL1        0.0959
      9 N         142.2533  138.0989  161.4443 N.ar    1  UNL1       -0.2434
     10 C         141.8484  139.2682  160.5965 C.ar    1  UNL1        0.0908
     11 C         140.5483  139.9694  160.8577 C.ar    1  UNL1        0.0858
     12 C         139.6532  139.5012  161.9667 C.ar    1  UNL1        0.0104
     13 C         140.1434  141.1387  160.0100 C.1     1  UNL1        0.1019
     14 N         139.7384  142.3081  159.1623 N.1     1  UNL1       -0.1908
     15 C         139.1632  137.8637  163.9233 C.3     1  UNL1        0.1008
     16 N         139.3630  139.8386  167.9619 N.3     1  UNL1       -0.2703
     17 C         138.1197  139.1111  167.5434 C.3     1  UNL1        0.0897
     18 C         138.0531  138.4529  166.1972 C.3     1  UNL1        0.0899
     19 N         139.2298  138.5220  165.2695 N.3     1  UNL1       -0.2665
     20 C         140.4730  139.2494  165.6879 C.3     1  UNL1        0.0899
     21 C         140.5396  139.9077  167.0341 C.3     1  UNL1        0.0897
     22 C         140.3771  139.9799  170.3496 C.3     1  UNL1        0.0188
     23 C         139.4296  140.4968  169.3080 C.3     1  UNL1        0.0722
     24 C         145.4287  141.1409  156.1609 C.2     1  UNL1        0.2495
     25 O         145.0537  140.8776  154.7326 O.2     1  UNL1       -0.2698
     26 N         146.6988  141.8722  156.4803 N.am    1  UNL1       -0.2794
     27 H         146.9449  142.0450  157.4178 H       1  UNL1        0.1552
     28 C         147.5938  142.3403  155.3714 C.ar    1  UNL1        0.0636
     29 C         148.9547  141.7333  155.1990 C.ar    1  UNL1        0.0159
     30 C         149.8497  142.2014  154.0901 C.ar    1  UNL1        0.0014
     31 C         149.3840  143.2765  153.1535 C.ar    1  UNL1        0.0013
     32 C         148.0232  143.8836  153.3259 C.ar    1  UNL1        0.0153
     33 C         147.1281  143.4155  154.4348 C.ar    1  UNL1        0.0552
     34 N         145.7673  144.0225  154.6072 N.pl3   1  UNL1       -0.3560
     35 H         145.4616  144.7281  153.9925 H       1  UNL1        0.1424
     36 H         145.1798  143.7153  155.3350 H       1  UNL1        0.1424
@<TRIPOS>BOND
     1    22    23    1
     2    23    16    1
     3    16    17    1
     4    17    18    1
     5    18    19    1
     6    19    15    1
     7    15     7    1
     8     7     8   ar
     9     8     9   ar
    10     9    10   ar
    11    10     1    1
    12     1     2   ar
    13     2     3   ar
    14     3     4   ar
    15     4    24    1
    16    24    25    2
    17    24    26   am
    18    26    28    1
    19    28    29   ar
    20    29    30   ar
    21    30    31   ar
    22    31    32   ar
    23    32    33   ar
    24    33    34    1
    25     4     5   ar
    26     5     6   ar
    27    10    11   ar
    28    11    13    1
    29    13    14    3
    30    11    12   ar
    31    19    20    1
    32    20    21    1
    33    21    16    1
    34    12     7   ar
    35     6     1   ar
    36    33    28   ar
    37    26    27    1
    38    34    35    1
    39    34    36    1
@<TRIPOS>MOLECULE
*****
 36 39 0 0 0
SMALL
GASTEIGER

@<TRIPOS>ATOM
      1 C         142.8473  141.6197  160.2024 C.ar    1  UNL1        0.0183
      2 C         142.7645  140.5396  159.1650 C.ar    1  UNL1        0.0017
      3 C         143.7140  140.5406  158.0038 C.ar    1  UNL1        0.0046
      4 C         144.7464  141.6218  157.8801 C.ar    1  UNL1        0.0537
      5 C         144.8292  142.7019  158.9175 C.ar    1  UNL1        0.0046
      6 C         143.8797  142.7009  160.0787 C.ar    1  UNL1        0.0017
      7 C         139.9988  141.6167  163.6862 C.ar    1  UNL1        0.0137
      8 C         141.3036  140.8831  163.7835 C.ar    1  UNL1        0.0959
      9 N         142.2531  140.8841  162.6223 N.ar    1  UNL1       -0.2434
     10 C         141.8978  141.6187  161.3637 C.ar    1  UNL1        0.0908
     11 C         140.5931  142.3523  161.2663 C.ar    1  UNL1        0.0858
     12 C         139.6435  142.3513  162.4275 C.ar    1  UNL1        0.0104
     13 C         140.2378  143.0868  160.0076 C.1     1  UNL1        0.1019
     14 N         139.8826  143.8214  158.7490 N.1     1  UNL1       -0.1908
     15 C         139.0493  141.6156  164.8474 C.3     1  UNL1        0.1008
     16 N         140.6175  141.1160  169.0356 N.3     1  UNL1       -0.2703
     17 C         139.9043  139.9816  168.3615 C.3     1  UNL1        0.0897
     18 C         139.3816  140.1482  166.9654 C.3     1  UNL1        0.0899
     19 N         139.5721  141.4491  166.2434 N.3     1  UNL1       -0.2665
     20 C         140.2853  142.5835  166.9176 C.3     1  UNL1        0.0899
     21 C         140.8080  142.4169  168.3136 C.3     1  UNL1        0.0897
     22 C         141.9093  142.0609  171.0821 C.3     1  UNL1        0.0188
     23 C         141.1403  140.9494  170.4317 C.3     1  UNL1        0.0722
     24 C         145.6959  141.6228  156.7188 C.2     1  UNL1        0.2495
     25 O         145.6315  140.5271  155.6964 O.2     1  UNL1       -0.2698
     26 N         146.7098  142.7195  156.5800 N.am    1  UNL1       -0.2794
     27 H         146.7520  143.4386  157.2510 H       1  UNL1        0.1552
     28 C         147.6593  142.7204  155.4188 C.ar    1  UNL1        0.0636
     29 C         148.8448  141.8014  155.4186 C.ar    1  UNL1        0.0159
     30 C         149.7943  141.8024  154.2574 C.ar    1  UNL1        0.0014
     31 C         149.5583  142.7223  153.0963 C.ar    1  UNL1        0.0013
     32 C         148.3728  143.6413  153.0965 C.ar    1  UNL1        0.0153
     33 C         147.4232  143.6403  154.2577 C.ar    1  UNL1        0.0552
     34 N         146.2377  144.5593  154.2579 N.pl3   1  UNL1       -0.3560
     35 H         146.0828  145.1631  153.4959 H       1  UNL1        0.1424
     36 H         145.6145  144.5587  155.0200 H       1  UNL1        0.1424
@<TRIPOS>BOND
     1    22    23    1
     2    23    16    1
     3    16    17    1
     4    17    18    1
     5    18    19    1
     6    19    15    1
     7    15     7    1
     8     7     8   ar
     9     8     9   ar
    10     9    10   ar
    11    10     1    1
    12     1     2   ar
    13     2     3   ar
    14     3     4   ar
    15     4    24    1
    16    24    25    2
    17    24    26   am
    18    26    28    1
    19    28    29   ar
    20    29    30   ar
    21    30    31   ar
    22    31    32   ar
    23    32    33   ar
    24    33    34    1
    25     4     5   ar
    26     5     6   ar
    27    10    11   ar
    28    11    13    1
    29    13    14    3
    30    11    12   ar
    31    19    20    1
    32    20    21    1
    33    21    16    1
    34    12     7   ar
    35     6     1   ar
    36    33    28   ar
    37    26    27    1
    38    34    35    1
    39    34    36    1
