@<TRIPOS>MOLECULE
*****
 27 31 0 0 0
SMALL
GASTEIGER

@<TRIPOS>ATOM
      1 C         139.7913  140.5250  167.0503 C.ar    1  UNL1       -0.0207
      2 C         140.0628  139.5503  165.9429 C.ar    1  UNL1       -0.0027
      3 C         140.3094  140.0479  164.5496 C.ar    1  UNL1        0.0188
      4 C         140.2845  141.5202  164.2635 C.ar    1  UNL1        0.0813
      5 N         140.5312  142.0177  162.8701 N.ar    1  UNL1       -0.2433
      6 C         140.5063  143.4900  162.5840 C.ar    1  UNL1        0.1050
      7 C         140.2348  144.4647  163.6915 C.ar    1  UNL1        0.0212
      8 C         139.9882  143.9671  165.0848 C.ar    1  UNL1        0.0031
      9 C         140.0131  142.4948  165.3709 C.ar    1  UNL1        0.0174
     10 C         139.7665  141.9973  166.7642 C.ar    1  UNL1       -0.0027
     11 C         140.7529  143.9876  161.1906 C.ar    1  UNL1        0.1283
     12 N         139.8794  144.9377  160.4263 N.ar    1  UNL1       -0.2368
     13 C         140.5029  145.1597  159.0802 C.ar    1  UNL1        0.0879
     14 C         140.0871  145.9971  157.9072 C.ar    1  UNL1        0.0196
     15 C         140.9301  146.0216  156.6667 C.ar    1  UNL1        0.0016
     16 C         142.1889  145.2087  156.5992 C.ar    1  UNL1        0.0006
     17 C         142.6047  144.3713  157.7722 C.ar    1  UNL1        0.0080
     18 C         141.7618  144.3468  159.0126 C.ar    1  UNL1        0.0485
     19 S         141.9163  143.6224  160.3170 S.2     1  UNL1       -0.0650
     20 C         139.5447  140.0274  168.4438 C.3     1  UNL1        0.0437
     21 C         140.6913  139.8706  169.3980 C.3     1  UNL1        0.0768
     22 C         139.8444  142.7921  170.5798 C.3     1  UNL1        0.0173
     23 C         141.2297  142.3647  170.1948 C.3     1  UNL1        0.0576
     24 C         142.4689  143.2050  170.2854 C.3     1  UNL1        0.0174
     25 C         143.6241  142.3815  169.7982 C.3     1  UNL1        0.0187
     26 C         143.0988  141.0321  169.4064 C.3     1  UNL1        0.0721
     27 N         141.6190  141.0218  169.6516 N.3     1  UNL1       -0.2737
@<TRIPOS>BOND
     1    23    22    1
     2    23    24    1
     3    24    25    1
     4    25    26    1
     5    26    27    1
     6    27    21    1
     7    21    20    1
     8    20     1    1
     9     1     2   ar
    10     2     3   ar
    11     3     4   ar
    12     4     5   ar
    13     5     6   ar
    14     6    11    1
    15    11    12   ar
    16    12    13   ar
    17    13    14   ar
    18    14    15   ar
    19    15    16   ar
    20    16    17   ar
    21    17    18   ar
    22    18    19   ar
    23     6     7   ar
    24     7     8   ar
    25     8     9   ar
    26     9    10   ar
    27    27    23    1
    28    10     1   ar
    29     9     4   ar
    30    19    11   ar
    31    18    13   ar
@<TRIPOS>MOLECULE
*****
 27 31 0 0 0
SMALL
GASTEIGER

@<TRIPOS>ATOM
      1 C         142.7084  138.4825  165.3095 C.ar    1  UNL1       -0.0207
      2 C         141.5509  137.6015  164.9435 C.ar    1  UNL1       -0.0027
      3 C         141.2578  137.3087  163.5018 C.ar    1  UNL1        0.0188
      4 C         142.1223  137.8968  162.4263 C.ar    1  UNL1        0.0813
      5 N         141.8292  137.6040  160.9846 N.ar    1  UNL1       -0.2433
      6 C         142.6937  138.1921  159.9090 C.ar    1  UNL1        0.1050
      7 C         143.8513  139.0730  160.2752 C.ar    1  UNL1        0.0212
      8 C         144.1443  139.3658  161.7168 C.ar    1  UNL1        0.0031
      9 C         143.2798  138.7777  162.7924 C.ar    1  UNL1        0.0174
     10 C         143.5729  139.0706  164.2340 C.ar    1  UNL1       -0.0027
     11 C         142.4006  137.8992  158.4674 C.ar    1  UNL1        0.1283
     12 N         143.1499  136.9380  157.5930 N.ar    1  UNL1       -0.2368
     13 C         142.5192  136.9609  156.2323 C.ar    1  UNL1        0.0879
     14 C         142.8349  136.2196  154.9670 C.ar    1  UNL1        0.0196
     15 C         142.0116  136.4537  153.7352 C.ar    1  UNL1        0.0016
     16 C         140.8726  137.4291  153.7686 C.ar    1  UNL1        0.0006
     17 C         140.5568  138.1705  155.0338 C.ar    1  UNL1        0.0080
     18 C         141.3801  137.9364  156.2656 C.ar    1  UNL1        0.0485
     19 S         141.3068  138.5163  157.6470 S.2     1  UNL1       -0.0650
     20 C         143.0015  138.7753  166.7512 C.3     1  UNL1        0.0437
     21 C         142.5722  140.0801  167.3538 C.3     1  UNL1        0.0768
     22 C         139.3893  140.1854  166.6415 C.3     1  UNL1        0.0173
     23 C         139.9843  140.1626  168.0182 C.3     1  UNL1        0.0576
     24 C         139.2209  140.1841  169.3092 C.3     1  UNL1        0.0174
     25 C         140.2121  140.1490  170.4346 C.3     1  UNL1        0.0187
     26 C         141.5882  140.1058  169.8390 C.3     1  UNL1        0.0721
     27 N         141.4473  140.1142  168.3456 N.3     1  UNL1       -0.2737
@<TRIPOS>BOND
     1    23    22    1
     2    23    24    1
     3    24    25    1
     4    25    26    1
     5    26    27    1
     6    27    21    1
     7    21    20    1
     8    20     1    1
     9     1     2   ar
    10     2     3   ar
    11     3     4   ar
    12     4     5   ar
    13     5     6   ar
    14     6    11    1
    15    11    12   ar
    16    12    13   ar
    17    13    14   ar
    18    14    15   ar
    19    15    16   ar
    20    16    17   ar
    21    17    18   ar
    22    18    19   ar
    23     6     7   ar
    24     7     8   ar
    25     8     9   ar
    26     9    10   ar
    27    27    23    1
    28    10     1   ar
    29     9     4   ar
    30    19    11   ar
    31    18    13   ar
@<TRIPOS>MOLECULE
*****
 27 31 0 0 0
SMALL
GASTEIGER

@<TRIPOS>ATOM
      1 C         142.3251  139.9293  166.8867 C.ar    1  UNL1       -0.0207
      2 C         141.3525  139.2007  166.0075 C.ar    1  UNL1       -0.0027
      3 C         140.9900  139.7613  164.6643 C.ar    1  UNL1        0.0188
      4 C         141.6003  141.0506  164.2002 C.ar    1  UNL1        0.0813
      5 N         141.2378  141.6112  162.8569 N.ar    1  UNL1       -0.2433
      6 C         141.8480  142.9005  162.3929 C.ar    1  UNL1        0.1050
      7 C         142.8208  143.6291  163.2721 C.ar    1  UNL1        0.0212
      8 C         143.1832  143.0685  164.6153 C.ar    1  UNL1        0.0031
      9 C         142.5730  141.7792  165.0794 C.ar    1  UNL1        0.0174
     10 C         142.9354  141.2186  166.4226 C.ar    1  UNL1       -0.0027
     11 C         141.4856  143.4611  161.0496 C.ar    1  UNL1        0.1283
     12 N         142.1718  144.6000  160.3553 N.ar    1  UNL1       -0.2368
     13 C         141.4837  144.8241  159.0414 C.ar    1  UNL1        0.0879
     14 C         141.7255  145.8098  157.9370 C.ar    1  UNL1        0.0196
     15 C         140.8559  145.7951  156.7148 C.ar    1  UNL1        0.0016
     16 C         139.7444  144.7948  156.5972 C.ar    1  UNL1        0.0006
     17 C         139.5025  143.8091  157.7017 C.ar    1  UNL1        0.0080
     18 C         140.3721  143.8237  158.9238 C.ar    1  UNL1        0.0485
     19 S         140.3733  142.9814  160.1649 S.2     1  UNL1       -0.0650
     20 C         142.6876  139.3687  168.2300 C.3     1  UNL1        0.0437
     21 C         141.8728  139.7275  169.4371 C.3     1  UNL1        0.0768
     22 C         143.8476  142.2929  169.8474 C.3     1  UNL1        0.0173
     23 C         142.3480  142.3264  169.8437 C.3     1  UNL1        0.0576
     24 C         141.4928  143.5449  170.0279 C.3     1  UNL1        0.0174
     25 C         140.0565  143.1188  169.9531 C.3     1  UNL1        0.0187
     26 C         140.0240  141.6368  169.7227 C.3     1  UNL1        0.0721
     27 N         141.4403  141.1472  169.6551 N.3     1  UNL1       -0.2737
@<TRIPOS>BOND
     1    23    22    1
     2    23    24    1
     3    24    25    1
     4    25    26    1
     5    26    27    1
     6    27    21    1
     7    21    20    1
     8    20     1    1
     9     1     2   ar
    10     2     3   ar
    11     3     4   ar
    12     4     5   ar
    13     5     6   ar
    14     6    11    1
    15    11    12   ar
    16    12    13   ar
    17    13    14   ar
    18    14    15   ar
    19    15    16   ar
    20    16    17   ar
    21    17    18   ar
    22    18    19   ar
    23     6     7   ar
    24     7     8   ar
    25     8     9   ar
    26     9    10   ar
    27    27    23    1
    28    10     1   ar
    29     9     4   ar
    30    19    11   ar
    31    18    13   ar
@<TRIPOS>MOLECULE
*****
 27 31 0 0 0
SMALL
GASTEIGER

@<TRIPOS>ATOM
      1 C         143.0241  142.7009  165.8345 C.ar    1  UNL1       -0.0207
      2 C         144.1878  143.3602  165.1555 C.ar    1  UNL1       -0.0027
      3 C         144.0385  143.8945  163.7619 C.ar    1  UNL1        0.0188
      4 C         142.7256  143.7696  163.0473 C.ar    1  UNL1        0.0813
      5 N         142.5764  144.3040  161.6536 N.ar    1  UNL1       -0.2433
      6 C         141.2635  144.1791  160.9391 C.ar    1  UNL1        0.1050
      7 C         140.0997  143.5198  161.6182 C.ar    1  UNL1        0.0212
      8 C         140.2490  142.9854  163.0118 C.ar    1  UNL1        0.0031
      9 C         141.5619  143.1103  163.7264 C.ar    1  UNL1        0.0174
     10 C         141.7112  142.5760  165.1199 C.ar    1  UNL1       -0.0027
     11 C         141.1142  144.7134  159.5455 C.ar    1  UNL1        0.1283
     12 N         140.0489  145.6577  159.0727 N.ar    1  UNL1       -0.2368
     13 C         140.2804  145.9252  157.6150 C.ar    1  UNL1        0.0879
     14 C         139.5469  146.7774  156.6221 C.ar    1  UNL1        0.0196
     15 C         140.0219  146.8507  155.2011 C.ar    1  UNL1        0.0016
     16 C         141.2302  146.0718  154.7731 C.ar    1  UNL1        0.0006
     17 C         141.9636  145.2196  155.7660 C.ar    1  UNL1        0.0080
     18 C         141.4887  145.1463  157.1869 C.ar    1  UNL1        0.0485
     19 S         142.0041  144.3974  158.3800 S.2     1  UNL1       -0.0650
     20 C         143.1733  142.1665  167.2282 C.3     1  UNL1        0.0437
     21 C         142.6332  140.8104  167.5732 C.3     1  UNL1        0.0768
     22 C         139.5396  140.1416  166.7784 C.3     1  UNL1        0.0173
     23 C         140.0632  140.3741  168.1647 C.3     1  UNL1        0.0576
     24 C         139.2567  140.3400  169.4290 C.3     1  UNL1        0.0174
     25 C         140.1803  140.6263  170.5758 C.3     1  UNL1        0.0187
     26 C         141.5576  140.8374  170.0201 C.3     1  UNL1        0.0721
     27 N         141.4851  140.6815  168.5300 N.3     1  UNL1       -0.2737
@<TRIPOS>BOND
     1    23    22    1
     2    23    24    1
     3    24    25    1
     4    25    26    1
     5    26    27    1
     6    27    21    1
     7    21    20    1
     8    20     1    1
     9     1     2   ar
    10     2     3   ar
    11     3     4   ar
    12     4     5   ar
    13     5     6   ar
    14     6    11    1
    15    11    12   ar
    16    12    13   ar
    17    13    14   ar
    18    14    15   ar
    19    15    16   ar
    20    16    17   ar
    21    17    18   ar
    22    18    19   ar
    23     6     7   ar
    24     7     8   ar
    25     8     9   ar
    26     9    10   ar
    27    27    23    1
    28    10     1   ar
    29     9     4   ar
    30    19    11   ar
    31    18    13   ar
@<TRIPOS>MOLECULE
*****
 27 31 0 0 0
SMALL
GASTEIGER

@<TRIPOS>ATOM
      1 C         142.7851  138.4971  165.3194 C.ar    1  UNL1       -0.0207
      2 C         141.6122  137.6253  164.9818 C.ar    1  UNL1       -0.0027
      3 C         141.2837  137.3322  163.5478 C.ar    1  UNL1        0.0188
      4 C         142.1281  137.9111  162.4515 C.ar    1  UNL1        0.0813
      5 N         141.7996  137.6180  161.0175 N.ar    1  UNL1       -0.2433
      6 C         142.6440  138.1968  159.9212 C.ar    1  UNL1        0.1050
      7 C         143.8170  139.0687  160.2589 C.ar    1  UNL1        0.0212
      8 C         144.1455  139.3618  161.6928 C.ar    1  UNL1        0.0031
      9 C         143.3010  138.7829  162.7891 C.ar    1  UNL1        0.0174
     10 C         143.6295  139.0760  164.2231 C.ar    1  UNL1       -0.0027
     11 C         142.3155  137.9038  158.4873 C.ar    1  UNL1        0.1283
     12 N         143.1562  137.1054  157.5356 N.ar    1  UNL1       -0.2368
     13 C         142.4490  137.0659  156.2134 C.ar    1  UNL1        0.0879
     14 C         142.8034  136.4251  154.9043 C.ar    1  UNL1        0.0196
     15 C         141.8800  136.5583  153.7297 C.ar    1  UNL1        0.0016
     16 C         140.6021  137.3322  153.8643 C.ar    1  UNL1        0.0006
     17 C         140.2477  137.9730  155.1734 C.ar    1  UNL1        0.0080
     18 C         141.1710  137.8398  156.3480 C.ar    1  UNL1        0.0485
     19 S         141.0886  138.3576  157.7533 S.2     1  UNL1       -0.0650
     20 C         143.1136  138.7902  166.7534 C.3     1  UNL1        0.0437
     21 C         142.3653  139.8610  167.4905 C.3     1  UNL1        0.0768
     22 C         139.1539  139.6291  166.9590 C.3     1  UNL1        0.0173
     23 C         140.0475  140.7383  166.4888 C.3     1  UNL1        0.0576
     24 C         139.6220  141.9356  165.6918 C.3     1  UNL1        0.0174
     25 C         140.8351  142.7823  165.4434 C.3     1  UNL1        0.0187
     26 C         142.0105  142.1081  166.0871 C.3     1  UNL1        0.0721
     27 N         141.5236  140.8449  166.7331 N.3     1  UNL1       -0.2737
@<TRIPOS>BOND
     1    23    22    1
     2    23    24    1
     3    24    25    1
     4    25    26    1
     5    26    27    1
     6    27    21    1
     7    21    20    1
     8    20     1    1
     9     1     2   ar
    10     2     3   ar
    11     3     4   ar
    12     4     5   ar
    13     5     6   ar
    14     6    11    1
    15    11    12   ar
    16    12    13   ar
    17    13    14   ar
    18    14    15   ar
    19    15    16   ar
    20    16    17   ar
    21    17    18   ar
    22    18    19   ar
    23     6     7   ar
    24     7     8   ar
    25     8     9   ar
    26     9    10   ar
    27    27    23    1
    28    10     1   ar
    29     9     4   ar
    30    19    11   ar
    31    18    13   ar
@<TRIPOS>MOLECULE
*****
 27 31 0 0 0
SMALL
GASTEIGER

@<TRIPOS>ATOM
      1 C         140.7151  142.7639  165.9657 C.ar    1  UNL1       -0.0207
      2 C         139.3458  143.1936  165.5295 C.ar    1  UNL1       -0.0027
      3 C         139.1319  143.7212  164.1418 C.ar    1  UNL1        0.0188
      4 C         140.2874  143.8193  163.1903 C.ar    1  UNL1        0.0813
      5 N         140.0735  144.3470  161.8026 N.ar    1  UNL1       -0.2433
      6 C         141.2289  144.4451  160.8511 C.ar    1  UNL1        0.1050
      7 C         142.5983  144.0155  161.2874 C.ar    1  UNL1        0.0212
      8 C         142.8122  143.4878  162.6751 C.ar    1  UNL1        0.0031
      9 C         141.6567  143.3897  163.6266 C.ar    1  UNL1        0.0174
     10 C         141.8706  142.8620  165.0143 C.ar    1  UNL1       -0.0027
     11 C         141.0151  144.9728  159.4634 C.ar    1  UNL1        0.1283
     12 N         139.9039  145.8810  159.0270 N.ar    1  UNL1       -0.2368
     13 C         140.0769  146.1544  157.5623 C.ar    1  UNL1        0.0879
     14 C         139.2826  146.9810  156.5949 C.ar    1  UNL1        0.0196
     15 C         139.7065  147.0684  155.1587 C.ar    1  UNL1        0.0016
     16 C         140.9246  146.3292  154.6899 C.ar    1  UNL1        0.0006
     17 C         141.7188  145.5026  155.6573 C.ar    1  UNL1        0.0080
     18 C         141.2950  145.4152  157.0935 C.ar    1  UNL1        0.0485
     19 S         141.8748  144.6849  158.2684 S.2     1  UNL1       -0.0650
     20 C         140.9290  142.2362  167.3535 C.3     1  UNL1        0.0437
     21 C         140.6544  140.7934  167.6579 C.3     1  UNL1        0.0768
     22 C         138.2665  139.5056  165.8442 C.3     1  UNL1        0.0173
     23 C         139.7243  139.1641  165.7538 C.3     1  UNL1        0.0576
     24 C         140.3405  138.1706  164.8139 C.3     1  UNL1        0.0174
     25 C         141.8189  138.1486  165.0666 C.3     1  UNL1        0.0187
     26 C         142.1164  139.1284  166.1628 C.3     1  UNL1        0.0721
     27 N         140.8219  139.7560  166.5874 N.3     1  UNL1       -0.2737
@<TRIPOS>BOND
     1    23    22    1
     2    23    24    1
     3    24    25    1
     4    25    26    1
     5    26    27    1
     6    27    21    1
     7    21    20    1
     8    20     1    1
     9     1     2   ar
    10     2     3   ar
    11     3     4   ar
    12     4     5   ar
    13     5     6   ar
    14     6    11    1
    15    11    12   ar
    16    12    13   ar
    17    13    14   ar
    18    14    15   ar
    19    15    16   ar
    20    16    17   ar
    21    17    18   ar
    22    18    19   ar
    23     6     7   ar
    24     7     8   ar
    25     8     9   ar
    26     9    10   ar
    27    27    23    1
    28    10     1   ar
    29     9     4   ar
    30    19    11   ar
    31    18    13   ar
@<TRIPOS>MOLECULE
*****
 27 31 0 0 0
SMALL
GASTEIGER

@<TRIPOS>ATOM
      1 C         142.8679  142.5268  165.9434 C.ar    1  UNL1       -0.0207
      2 C         144.0624  142.4628  165.0384 C.ar    1  UNL1       -0.0027
      3 C         143.9461  142.9071  163.6105 C.ar    1  UNL1        0.0188
      4 C         142.6354  143.4155  163.0876 C.ar    1  UNL1        0.0813
      5 N         142.5192  143.8598  161.6595 N.ar    1  UNL1       -0.2433
      6 C         141.2084  144.3682  161.1366 C.ar    1  UNL1        0.1050
      7 C         140.0139  144.4322  162.0416 C.ar    1  UNL1        0.0212
      8 C         140.1301  143.9878  163.4696 C.ar    1  UNL1        0.0031
      9 C         141.4409  143.4795  163.9925 C.ar    1  UNL1        0.0174
     10 C         141.5571  143.0352  165.4204 C.ar    1  UNL1       -0.0027
     11 C         141.0922  144.8125  159.7087 C.ar    1  UNL1        0.1283
     12 N         140.0490  145.7374  159.1553 N.ar    1  UNL1       -0.2368
     13 C         140.3107  145.9065  157.6880 C.ar    1  UNL1        0.0879
     14 C         139.6075  146.7015  156.6281 C.ar    1  UNL1        0.0196
     15 C         140.1094  146.6761  155.2147 C.ar    1  UNL1        0.0016
     16 C         141.3144  145.8558  154.8613 C.ar    1  UNL1        0.0006
     17 C         142.0176  145.0607  155.9212 C.ar    1  UNL1        0.0080
     18 C         141.5158  145.0861  157.3346 C.ar    1  UNL1        0.0485
     19 S         141.9987  144.4100  158.5834 S.2     1  UNL1       -0.0650
     20 C         142.9841  142.0824  167.3714 C.3     1  UNL1        0.0437
     21 C         142.5846  140.6894  167.7583 C.3     1  UNL1        0.0768
     22 C         139.5048  140.2174  166.7880 C.3     1  UNL1        0.0173
     23 C         140.7142  139.5034  166.2614 C.3     1  UNL1        0.0576
     24 C         140.7205  138.4471  165.1964 C.3     1  UNL1        0.0174
     25 C         142.1400  138.0112  164.9841 C.3     1  UNL1        0.0187
     26 C         143.0111  138.7982  165.9180 C.3     1  UNL1        0.0721
     27 N         142.1299  139.7203  166.7074 N.3     1  UNL1       -0.2737
@<TRIPOS>BOND
     1    23    22    1
     2    23    24    1
     3    24    25    1
     4    25    26    1
     5    26    27    1
     6    27    21    1
     7    21    20    1
     8    20     1    1
     9     1     2   ar
    10     2     3   ar
    11     3     4   ar
    12     4     5   ar
    13     5     6   ar
    14     6    11    1
    15    11    12   ar
    16    12    13   ar
    17    13    14   ar
    18    14    15   ar
    19    15    16   ar
    20    16    17   ar
    21    17    18   ar
    22    18    19   ar
    23     6     7   ar
    24     7     8   ar
    25     8     9   ar
    26     9    10   ar
    27    27    23    1
    28    10     1   ar
    29     9     4   ar
    30    19    11   ar
    31    18    13   ar
@<TRIPOS>MOLECULE
*****
 27 31 0 0 0
SMALL
GASTEIGER

@<TRIPOS>ATOM
      1 C         142.1701  142.3912  166.3168 C.ar    1  UNL1       -0.0207
      2 C         140.8164  142.9803  166.0513 C.ar    1  UNL1       -0.0027
      3 C         140.4849  143.5140  164.6893 C.ar    1  UNL1        0.0188
      4 C         141.5070  143.4588  163.5928 C.ar    1  UNL1        0.0813
      5 N         141.1753  143.9926  162.2307 N.ar    1  UNL1       -0.2433
      6 C         142.1974  143.9373  161.1343 C.ar    1  UNL1        0.1050
      7 C         143.5512  143.3482  161.3999 C.ar    1  UNL1        0.0212
      8 C         143.8827  142.8145  162.7619 C.ar    1  UNL1        0.0031
      9 C         142.8606  142.8697  163.8583 C.ar    1  UNL1        0.0174
     10 C         143.1922  142.3360  165.2203 C.ar    1  UNL1       -0.0027
     11 C         141.8658  144.4710  159.7723 C.ar    1  UNL1        0.1283
     12 N         142.6449  144.2234  158.5146 N.ar    1  UNL1       -0.2368
     13 C         141.9576  144.9455  157.3938 C.ar    1  UNL1        0.0879
     14 C         142.2723  145.0608  155.9318 C.ar    1  UNL1        0.0196
     15 C         141.3832  145.8700  155.0347 C.ar    1  UNL1        0.0016
     16 C         140.1793  146.5638  155.5997 C.ar    1  UNL1        0.0006
     17 C         139.8646  146.4485  157.0617 C.ar    1  UNL1        0.0080
     18 C         140.7536  145.6394  157.9588 C.ar    1  UNL1        0.0485
     19 S         140.6970  145.3461  159.4287 S.2     1  UNL1       -0.0650
     20 C         142.5018  141.8574  167.6789 C.3     1  UNL1        0.0437
     21 C         142.0453  140.4856  168.0784 C.3     1  UNL1        0.0768
     22 C         139.1471  140.4337  169.5775 C.3     1  UNL1        0.0173
     23 C         139.4398  139.9019  168.2059 C.3     1  UNL1        0.0576
     24 C         138.4519  139.2528  167.2826 C.3     1  UNL1        0.0174
     25 C         139.1734  138.8754  166.0227 C.3     1  UNL1        0.0187
     26 C         140.6074  139.2914  166.1676 C.3     1  UNL1        0.0721
     27 N         140.7719  139.9257  167.5168 N.3     1  UNL1       -0.2737
@<TRIPOS>BOND
     1    23    22    1
     2    23    24    1
     3    24    25    1
     4    25    26    1
     5    26    27    1
     6    27    21    1
     7    21    20    1
     8    20     1    1
     9     1     2   ar
    10     2     3   ar
    11     3     4   ar
    12     4     5   ar
    13     5     6   ar
    14     6    11    1
    15    11    12   ar
    16    12    13   ar
    17    13    14   ar
    18    14    15   ar
    19    15    16   ar
    20    16    17   ar
    21    17    18   ar
    22    18    19   ar
    23     6     7   ar
    24     7     8   ar
    25     8     9   ar
    26     9    10   ar
    27    27    23    1
    28    10     1   ar
    29     9     4   ar
    30    19    11   ar
    31    18    13   ar
@<TRIPOS>MOLECULE
*****
 27 31 0 0 0
SMALL
GASTEIGER

@<TRIPOS>ATOM
      1 C         140.7500  143.1575  165.5174 C.ar    1  UNL1       -0.0207
      2 C         139.5534  144.0195  165.2434 C.ar    1  UNL1       -0.0027
      3 C         139.3365  144.5876  163.8722 C.ar    1  UNL1        0.0188
      4 C         140.3162  144.2937  162.7750 C.ar    1  UNL1        0.0813
      5 N         140.0993  144.8619  161.4038 N.ar    1  UNL1       -0.2433
      6 C         141.0790  144.5681  160.3066 C.ar    1  UNL1        0.1050
      7 C         142.2756  143.7061  160.5806 C.ar    1  UNL1        0.0212
      8 C         142.4925  143.1380  161.9518 C.ar    1  UNL1        0.0031
      9 C         141.5128  143.4318  163.0490 C.ar    1  UNL1        0.0174
     10 C         141.7297  142.8637  164.4202 C.ar    1  UNL1       -0.0027
     11 C         140.8621  145.1362  158.9354 C.ar    1  UNL1        0.1283
     12 N         139.7832  146.1009  158.5413 N.ar    1  UNL1       -0.2368
     13 C         139.9403  146.4003  157.0799 C.ar    1  UNL1        0.0879
     14 C         139.1645  147.2822  156.1470 C.ar    1  UNL1        0.0196
     15 C         139.5646  147.3843  154.7049 C.ar    1  UNL1        0.0016
     16 C         140.7406  146.6046  154.1959 C.ar    1  UNL1        0.0006
     17 C         141.5164  145.7227  155.1288 C.ar    1  UNL1        0.0080
     18 C         141.1163  145.6206  156.5708 C.ar    1  UNL1        0.0485
     19 S         141.6860  144.8393  157.7176 S.2     1  UNL1       -0.0650
     20 C         140.9670  142.5894  166.8886 C.3     1  UNL1        0.0437
     21 C         142.2822  141.9597  167.2401 C.3     1  UNL1        0.0768
     22 C         144.0551  142.5430  169.9170 C.3     1  UNL1        0.0173
     23 C         143.2037  141.3331  169.6698 C.3     1  UNL1        0.0576
     24 C         143.0177  140.1789  170.6095 C.3     1  UNL1        0.0174
     25 C         142.0878  139.1973  169.9599 C.3     1  UNL1        0.0187
     26 C         141.6991  139.7450  168.6185 C.3     1  UNL1        0.0721
     27 N         142.3888  141.0650  168.4393 N.3     1  UNL1       -0.2737
@<TRIPOS>BOND
     1    23    22    1
     2    23    24    1
     3    24    25    1
     4    25    26    1
     5    26    27    1
     6    27    21    1
     7    21    20    1
     8    20     1    1
     9     1     2   ar
    10     2     3   ar
    11     3     4   ar
    12     4     5   ar
    13     5     6   ar
    14     6    11    1
    15    11    12   ar
    16    12    13   ar
    17    13    14   ar
    18    14    15   ar
    19    15    16   ar
    20    16    17   ar
    21    17    18   ar
    22    18    19   ar
    23     6     7   ar
    24     7     8   ar
    25     8     9   ar
    26     9    10   ar
    27    27    23    1
    28    10     1   ar
    29     9     4   ar
    30    19    11   ar
    31    18    13   ar
