@<TRIPOS>MOLECULE
*****
 33 35 0 0 0
SMALL
GASTEIGER

@<TRIPOS>ATOM
      1 C         140.1192  142.5211  165.1022 C.ar    1  UNL1        0.1079
      2 N         140.9910  142.7897  166.2929 N.ar    1  UNL1       -0.1682
      3 N         140.7088  141.7349  167.3214 N.ar    1  UNL1       -0.2417
      4 C         139.6626  140.8144  166.7663 C.ar    1  UNL1        0.1279
      5 N         139.0825  139.6181  167.4608 N.pl3   1  UNL1       -0.3427
      6 C         139.2981  141.3003  165.3948 C.ar    1  UNL1        0.1031
      7 H         139.3877  139.3781  168.3655 H       1  UNL1        0.1437
      8 H         138.3966  139.0728  167.0119 H       1  UNL1        0.1437
      9 C         140.7759  145.3537  158.8736 C.ar    1  UNL1        0.2248
     10 C         141.6484  144.1363  158.9538 C.ar    1  UNL1        0.0577
     11 C         141.6916  143.3263  160.2156 C.ar    1  UNL1        0.0063
     12 C         140.8622  143.7337  161.3971 C.ar    1  UNL1        0.0180
     13 C         140.9054  142.9237  162.6589 C.ar    1  UNL1        0.0031
     14 C         140.0760  143.3311  163.8404 C.ar    1  UNL1        0.0197
     15 C         139.2034  144.5486  163.7603 C.ar    1  UNL1        0.0031
     16 C         139.1602  145.3586  162.4985 C.ar    1  UNL1        0.0193
     17 C         139.9897  144.9511  161.3169 C.ar    1  UNL1        0.0844
     18 N         139.9465  145.7611  160.0552 N.ar    1  UNL1       -0.2117
     19 O         140.7327  146.1637  157.6119 O.3     1  UNL1       -0.4602
     20 C         139.1231  147.0036  155.7535 C.3     1  UNL1        0.0512
     21 C         139.6858  145.8820  156.5752 C.3     1  UNL1        0.2072
     22 C         138.2898  140.6752  164.4770 C.2     1  UNL1        0.2470
     23 N         137.1884  141.5094  163.8930 N.am    1  UNL1       -0.3252
     24 O         138.3828  139.2157  164.1431 O.2     1  UNL1       -0.2702
     25 H         137.1273  142.4673  164.1121 H       1  UNL1        0.1453
     26 H         136.5266  141.0991  163.2906 H       1  UNL1        0.1453
     27 C         141.3586  141.6206  168.6684 C.3     1  UNL1        0.0903
     28 C         142.3715  140.6718  168.0994 C.3     1  UNL1        0.0246
     29 C         140.3457  142.5694  169.2376 C.3     1  UNL1        0.0246
     30 C         142.0085  141.5063  170.0155 C.3     1  UNL1        0.0543
     31 C         141.2059  141.7524  171.2587 C.3     1  UNL1        0.1391
     32 O         140.7925  140.5998  172.1250 O.3     1  UNL1       -0.3819
     33 H         140.1699  140.0368  171.6387 H       1  UNL1        0.2104
@<TRIPOS>BOND
     1    20    21    1
     2    21    19    1
     3    19     9    1
     4     9    10   ar
     5    10    11   ar
     6    11    12   ar
     7    12    13   ar
     8    13    14   ar
     9    14     1    1
    10     1     2   ar
    11     2     3   ar
    12     3    27    1
    13    27    28    1
    14    27    29    1
    15    27    30    1
    16    30    31    1
    17    31    32    1
    18     3     4   ar
    19     4     5    1
    20     4     6   ar
    21     6    22    1
    22    22    23   am
    23    22    24    2
    24    14    15   ar
    25    15    16   ar
    26    16    17   ar
    27    17    18   ar
    28    18     9   ar
    29    17    12   ar
    30     6     1   ar
    31    32    33    1
    32     5     7    1
    33     5     8    1
    34    23    25    1
    35    23    26    1
@<TRIPOS>MOLECULE
*****
 33 35 0 0 0
SMALL
GASTEIGER

@<TRIPOS>ATOM
      1 C         139.6596  140.7892  166.0147 C.ar    1  UNL1        0.1079
      2 N         140.6600  141.7569  166.5739 N.ar    1  UNL1       -0.1682
      3 N         140.8357  141.4513  168.0319 N.ar    1  UNL1       -0.2417
      4 C         139.9438  140.2947  168.3738 C.ar    1  UNL1        0.1279
      5 N         139.8034  139.6589  169.7251 N.pl3   1  UNL1       -0.3427
      6 C         139.2169  139.8855  167.1271 C.ar    1  UNL1        0.1031
      7 H         140.3260  140.0003  170.4864 H       1  UNL1        0.1437
      8 H         139.1887  138.9002  169.8507 H       1  UNL1        0.1437
      9 C         138.5710  139.8456  159.2935 C.ar    1  UNL1        0.2248
     10 C         139.8548  139.1742  159.6820 C.ar    1  UNL1        0.0577
     11 C         140.3293  139.2287  161.1039 C.ar    1  UNL1        0.0063
     12 C         139.5199  139.9545  162.1373 C.ar    1  UNL1        0.0180
     13 C         139.9944  140.0089  163.5593 C.ar    1  UNL1        0.0031
     14 C         139.1851  140.7348  164.5927 C.ar    1  UNL1        0.0197
     15 C         137.9012  141.4062  164.2043 C.ar    1  UNL1        0.0031
     16 C         137.4267  141.3518  162.7823 C.ar    1  UNL1        0.0193
     17 C         138.2361  140.6259  161.7489 C.ar    1  UNL1        0.0844
     18 N         137.7616  140.5714  160.3269 N.ar    1  UNL1       -0.2117
     19 O         138.0965  139.7911  157.8715 O.3     1  UNL1       -0.4602
     20 C         137.1718  141.0136  155.7738 C.3     1  UNL1        0.0512
     21 C         137.4651  140.9988  157.2448 C.3     1  UNL1        0.2072
     22 C         138.2221  138.7687  167.0129 C.2     1  UNL1        0.2470
     23 N         138.2253  137.8822  165.8028 N.am    1  UNL1       -0.3252
     24 O         137.2240  138.5383  168.1087 O.2     1  UNL1       -0.2702
     25 H         138.8803  138.0334  165.0836 H       1  UNL1        0.1453
     26 H         137.5723  137.1493  165.7279 H       1  UNL1        0.1453
     27 C         141.7437  142.1751  168.9813 C.3     1  UNL1        0.0903
     28 C         140.6658  143.1852  169.2422 C.3     1  UNL1        0.0246
     29 C         142.8216  141.1651  168.7204 C.3     1  UNL1        0.0246
     30 C         142.6518  142.8989  169.9307 C.3     1  UNL1        0.0543
     31 C         144.1174  142.5804  169.9567 C.3     1  UNL1        0.1391
     32 O         145.0751  143.5106  170.6405 O.3     1  UNL1       -0.3819
     33 H         145.1010  144.3553  170.1644 H       1  UNL1        0.2104
@<TRIPOS>BOND
     1    20    21    1
     2    21    19    1
     3    19     9    1
     4     9    10   ar
     5    10    11   ar
     6    11    12   ar
     7    12    13   ar
     8    13    14   ar
     9    14     1    1
    10     1     2   ar
    11     2     3   ar
    12     3    27    1
    13    27    28    1
    14    27    29    1
    15    27    30    1
    16    30    31    1
    17    31    32    1
    18     3     4   ar
    19     4     5    1
    20     4     6   ar
    21     6    22    1
    22    22    23   am
    23    22    24    2
    24    14    15   ar
    25    15    16   ar
    26    16    17   ar
    27    17    18   ar
    28    18     9   ar
    29    17    12   ar
    30     6     1   ar
    31    32    33    1
    32     5     7    1
    33     5     8    1
    34    23    25    1
    35    23    26    1
@<TRIPOS>MOLECULE
*****
 33 35 0 0 0
SMALL
GASTEIGER

@<TRIPOS>ATOM
      1 C         140.1328  140.0871  165.2934 C.ar    1  UNL1        0.1079
      2 N         139.5888  140.9732  166.3746 N.ar    1  UNL1       -0.1682
      3 N         140.4637  140.8203  167.5834 N.ar    1  UNL1       -0.2417
      4 C         141.5485  139.8396  167.2493 C.ar    1  UNL1        0.1279
      5 N         142.6452  139.3909  168.1690 N.pl3   1  UNL1       -0.3427
      6 C         141.3440  139.3865  165.8341 C.ar    1  UNL1        0.1031
      7 H         142.6959  139.7473  169.0853 H       1  UNL1        0.1437
      8 H         143.3143  138.7399  167.8563 H       1  UNL1        0.1437
      9 C         138.2197  140.4395  158.7006 C.ar    1  UNL1        0.2248
     10 C         139.1440  141.5809  159.0053 C.ar    1  UNL1        0.0577
     11 C         139.7115  141.7387  160.3848 C.ar    1  UNL1        0.0063
     12 C         139.3547  140.7551  161.4596 C.ar    1  UNL1        0.0180
     13 C         139.9221  140.9129  162.8391 C.ar    1  UNL1        0.0031
     14 C         139.5653  139.9293  163.9139 C.ar    1  UNL1        0.0197
     15 C         138.6410  138.7879  163.6092 C.ar    1  UNL1        0.0031
     16 C         138.0735  138.6301  162.2297 C.ar    1  UNL1        0.0193
     17 C         138.4304  139.6137  161.1549 C.ar    1  UNL1        0.0844
     18 N         137.8629  139.4559  159.7754 N.ar    1  UNL1       -0.2117
     19 O         137.6522  140.2817  157.3211 O.3     1  UNL1       -0.4602
     20 C         135.5228  140.9752  156.0040 C.3     1  UNL1        0.0512
     21 C         136.7715  141.3508  156.7456 C.3     1  UNL1        0.2072
     22 C         142.2003  138.4051  165.0901 C.2     1  UNL1        0.2470
     23 N         143.6372  138.7280  164.8057 N.am    1  UNL1       -0.3252
     24 O         141.6196  137.1006  164.6304 O.2     1  UNL1       -0.2702
     25 H         144.0184  139.5841  165.1073 H       1  UNL1        0.1453
     26 H         144.1992  138.0838  164.3174 H       1  UNL1        0.1453
     27 C         140.2852  141.5243  168.8957 C.3     1  UNL1        0.0903
     28 C         141.1497  142.6497  168.4097 C.3     1  UNL1        0.0246
     29 C         139.4207  140.3990  169.3818 C.3     1  UNL1        0.0246
     30 C         140.1067  142.2283  170.2082 C.3     1  UNL1        0.0543
     31 C         140.8057  141.7189  171.4337 C.3     1  UNL1        0.1391
     32 O         142.1275  142.3004  171.8396 O.3     1  UNL1       -0.3819
     33 H         142.7952  142.0840  171.1701 H       1  UNL1        0.2104
@<TRIPOS>BOND
     1    20    21    1
     2    21    19    1
     3    19     9    1
     4     9    10   ar
     5    10    11   ar
     6    11    12   ar
     7    12    13   ar
     8    13    14   ar
     9    14     1    1
    10     1     2   ar
    11     2     3   ar
    12     3    27    1
    13    27    28    1
    14    27    29    1
    15    27    30    1
    16    30    31    1
    17    31    32    1
    18     3     4   ar
    19     4     5    1
    20     4     6   ar
    21     6    22    1
    22    22    23   am
    23    22    24    2
    24    14    15   ar
    25    15    16   ar
    26    16    17   ar
    27    17    18   ar
    28    18     9   ar
    29    17    12   ar
    30     6     1   ar
    31    32    33    1
    32     5     7    1
    33     5     8    1
    34    23    25    1
    35    23    26    1
@<TRIPOS>MOLECULE
*****
 33 35 0 0 0
SMALL
GASTEIGER

@<TRIPOS>ATOM
      1 C         141.1316  143.0491  165.2507 C.ar    1  UNL1        0.1079
      2 N         140.0951  142.6201  166.2465 N.ar    1  UNL1       -0.1682
      3 N         140.8055  142.1329  167.4745 N.ar    1  UNL1       -0.2417
      4 C         142.2812  142.2608  167.2376 C.ar    1  UNL1        0.1279
      5 N         143.3650  141.8879  168.2052 N.pl3   1  UNL1       -0.3427
      6 C         142.4828  142.8270  165.8633 C.ar    1  UNL1        0.1031
      7 H         143.1315  141.5217  169.0888 H       1  UNL1        0.1437
      8 H         144.3098  142.0093  167.9568 H       1  UNL1        0.1437
      9 C         139.9725  144.3409  158.5996 C.ar    1  UNL1        0.2248
     10 C         140.1509  142.8636  158.7890 C.ar    1  UNL1        0.0577
     11 C         140.4185  142.3098  160.1571 C.ar    1  UNL1        0.0063
     12 C         140.5075  143.2333  161.3358 C.ar    1  UNL1        0.0180
     13 C         140.7750  142.6795  162.7039 C.ar    1  UNL1        0.0031
     14 C         140.8641  143.6029  163.8826 C.ar    1  UNL1        0.0197
     15 C         140.6856  145.0802  163.6932 C.ar    1  UNL1        0.0031
     16 C         140.4181  145.6340  162.3251 C.ar    1  UNL1        0.0193
     17 C         140.3290  144.7105  161.1464 C.ar    1  UNL1        0.0844
     18 N         140.0615  145.2643  159.7783 N.ar    1  UNL1       -0.2117
     19 O         139.7049  144.8947  157.2315 O.3     1  UNL1       -0.4602
     20 C         139.2738  147.0299  155.8156 C.3     1  UNL1        0.0512
     21 C         139.9892  146.3379  156.9378 C.3     1  UNL1        0.2072
     22 C         143.8035  143.1197  165.2153 C.2     1  UNL1        0.2470
     23 N         144.1010  142.5874  163.8449 N.am    1  UNL1       -0.3252
     24 O         144.8269  143.9448  165.9378 O.2     1  UNL1       -0.2702
     25 H         143.4294  142.0458  163.3707 H       1  UNL1        0.1453
     26 H         144.9679  142.7795  163.4197 H       1  UNL1        0.1453
     27 C         140.1546  141.6098  168.7204 C.3     1  UNL1        0.0903
     28 C         140.2800  142.9634  169.3544 C.3     1  UNL1        0.0246
     29 C         140.0292  140.2560  168.0865 C.3     1  UNL1        0.0246
     30 C         139.5037  141.0865  169.9664 C.3     1  UNL1        0.0543
     31 C         140.2165  140.0783  170.8183 C.3     1  UNL1        0.1391
     32 O         141.1145  140.5360  171.9292 O.3     1  UNL1       -0.3819
     33 H         141.8787  141.0023  171.5559 H       1  UNL1        0.2104
@<TRIPOS>BOND
     1    20    21    1
     2    21    19    1
     3    19     9    1
     4     9    10   ar
     5    10    11   ar
     6    11    12   ar
     7    12    13   ar
     8    13    14   ar
     9    14     1    1
    10     1     2   ar
    11     2     3   ar
    12     3    27    1
    13    27    28    1
    14    27    29    1
    15    27    30    1
    16    30    31    1
    17    31    32    1
    18     3     4   ar
    19     4     5    1
    20     4     6   ar
    21     6    22    1
    22    22    23   am
    23    22    24    2
    24    14    15   ar
    25    15    16   ar
    26    16    17   ar
    27    17    18   ar
    28    18     9   ar
    29    17    12   ar
    30     6     1   ar
    31    32    33    1
    32     5     7    1
    33     5     8    1
    34    23    25    1
    35    23    26    1
@<TRIPOS>MOLECULE
*****
 33 35 0 0 0
SMALL
GASTEIGER

@<TRIPOS>ATOM
      1 C         142.3893  141.5392  165.1711 C.ar    1  UNL1        0.1079
      2 N         141.8090  141.8797  166.5118 N.ar    1  UNL1       -0.1682
      3 N         142.1292  140.7573  167.4540 N.ar    1  UNL1       -0.2417
      4 C         142.9074  139.7232  166.6957 C.ar    1  UNL1        0.1279
      5 N         143.4327  138.4325  167.2509 N.pl3   1  UNL1       -0.3427
      6 C         143.0682  140.2064  165.2848 C.ar    1  UNL1        0.1031
      7 H         143.2752  138.2025  168.1951 H       1  UNL1        0.1437
      8 H         143.9349  137.8155  166.6710 H       1  UNL1        0.1437
      9 C         140.8956  144.7567  159.2833 C.ar    1  UNL1        0.2248
     10 C         139.8209  143.7536  159.5810 C.ar    1  UNL1        0.0577
     11 C         139.9047  142.9095  160.8181 C.ar    1  UNL1        0.0063
     12 C         141.0632  143.0685  161.7575 C.ar    1  UNL1        0.0180
     13 C         141.1470  142.2244  162.9946 C.ar    1  UNL1        0.0031
     14 C         142.3055  142.3833  163.9340 C.ar    1  UNL1        0.0197
     15 C         143.3804  143.3865  163.6363 C.ar    1  UNL1        0.0031
     16 C         143.2966  144.2306  162.3991 C.ar    1  UNL1        0.0193
     17 C         142.1379  144.0715  161.4598 C.ar    1  UNL1        0.0844
     18 N         142.0541  144.9156  160.2226 N.ar    1  UNL1       -0.2117
     19 O         140.8118  145.6008  158.0461 O.3     1  UNL1       -0.4602
     20 C         142.1342  145.2920  155.8312 C.3     1  UNL1        0.0512
     21 C         142.0404  145.8470  157.2216 C.3     1  UNL1        0.2072
     22 C         143.7825  139.4838  164.1814 C.2     1  UNL1        0.2470
     23 N         145.2223  139.7900  163.8933 N.am    1  UNL1       -0.3252
     24 O         143.0568  138.4549  163.3659 O.2     1  UNL1       -0.2702
     25 H         145.6987  140.4652  164.4284 H       1  UNL1        0.1453
     26 H         145.6911  139.3156  163.1690 H       1  UNL1        0.1453
     27 C         141.7396  140.6822  168.9005 C.3     1  UNL1        0.0903
     28 C         143.0461  141.3107  169.2852 C.3     1  UNL1        0.0246
     29 C         140.4329  140.0537  168.5159 C.3     1  UNL1        0.0246
     30 C         141.3499  140.6071  170.3471 C.3     1  UNL1        0.0543
     31 C         141.5168  141.8066  171.2321 C.3     1  UNL1        0.1391
     32 O         140.4320  142.1836  172.1970 O.3     1  UNL1       -0.3819
     33 H         139.6411  142.4539  171.7047 H       1  UNL1        0.2104
@<TRIPOS>BOND
     1    20    21    1
     2    21    19    1
     3    19     9    1
     4     9    10   ar
     5    10    11   ar
     6    11    12   ar
     7    12    13   ar
     8    13    14   ar
     9    14     1    1
    10     1     2   ar
    11     2     3   ar
    12     3    27    1
    13    27    28    1
    14    27    29    1
    15    27    30    1
    16    30    31    1
    17    31    32    1
    18     3     4   ar
    19     4     5    1
    20     4     6   ar
    21     6    22    1
    22    22    23   am
    23    22    24    2
    24    14    15   ar
    25    15    16   ar
    26    16    17   ar
    27    17    18   ar
    28    18     9   ar
    29    17    12   ar
    30     6     1   ar
    31    32    33    1
    32     5     7    1
    33     5     8    1
    34    23    25    1
    35    23    26    1
@<TRIPOS>MOLECULE
*****
 33 35 0 0 0
SMALL
GASTEIGER

@<TRIPOS>ATOM
      1 C         140.5427  141.2462  165.3323 C.ar    1  UNL1        0.1079
      2 N         141.2004  141.3485  166.6765 N.ar    1  UNL1       -0.1682
      3 N         140.4265  140.4953  167.6374 N.ar    1  UNL1       -0.2417
      4 C         139.2905  139.8658  166.8869 C.ar    1  UNL1        0.1279
      5 N         138.2630  138.9355  167.4604 N.pl3   1  UNL1       -0.3427
      6 C         139.3622  140.3298  165.4623 C.ar    1  UNL1        0.1031
      7 H         138.2996  138.6883  168.4127 H       1  UNL1        0.1437
      8 H         137.5520  138.5721  166.8845 H       1  UNL1        0.1437
      9 C         141.5167  145.1545  159.7621 C.ar    1  UNL1        0.2248
     10 C         140.2674  145.6004  160.4625 C.ar    1  UNL1        0.0577
     11 C         139.8228  144.9079  161.7166 C.ar    1  UNL1        0.0063
     12 C         140.6274  143.7695  162.2703 C.ar    1  UNL1        0.0180
     13 C         140.1827  143.0771  163.5244 C.ar    1  UNL1        0.0031
     14 C         140.9874  141.9387  164.0782 C.ar    1  UNL1        0.0197
     15 C         142.2367  141.4928  163.3778 C.ar    1  UNL1        0.0031
     16 C         142.6813  142.1852  162.1237 C.ar    1  UNL1        0.0193
     17 C         141.8766  143.3237  161.5700 C.ar    1  UNL1        0.0844
     18 N         142.3213  144.0162  160.3159 N.ar    1  UNL1       -0.2117
     19 O         141.9613  145.8470  158.5080 O.3     1  UNL1       -0.4602
     20 C         142.4093  144.1917  156.5563 C.3     1  UNL1        0.0512
     21 C         141.5862  145.2863  157.1684 C.3     1  UNL1        0.2072
     22 C         138.4193  139.9451  164.3611 C.2     1  UNL1        0.2470
     23 N         137.3701  140.9127  163.8997 N.am    1  UNL1       -0.3252
     24 O         138.5254  138.5925  163.7212 O.2     1  UNL1       -0.2702
     25 H         137.3004  141.8004  164.3196 H       1  UNL1        0.1453
     26 H         136.7512  140.6601  163.1769 H       1  UNL1        0.1453
     27 C         140.7344  140.3051  169.0930 C.3     1  UNL1        0.0903
     28 C         139.5348  141.1298  169.4546 C.3     1  UNL1        0.0246
     29 C         141.9341  139.4804  168.7314 C.3     1  UNL1        0.0246
     30 C         141.0424  140.1149  170.5486 C.3     1  UNL1        0.0543
     31 C         142.2105  140.8242  171.1670 C.3     1  UNL1        0.1391
     32 O         141.9989  142.1079  171.9136 O.3     1  UNL1       -0.3819
     33 H         141.6996  142.7947  171.2974 H       1  UNL1        0.2104
@<TRIPOS>BOND
     1    20    21    1
     2    21    19    1
     3    19     9    1
     4     9    10   ar
     5    10    11   ar
     6    11    12   ar
     7    12    13   ar
     8    13    14   ar
     9    14     1    1
    10     1     2   ar
    11     2     3   ar
    12     3    27    1
    13    27    28    1
    14    27    29    1
    15    27    30    1
    16    30    31    1
    17    31    32    1
    18     3     4   ar
    19     4     5    1
    20     4     6   ar
    21     6    22    1
    22    22    23   am
    23    22    24    2
    24    14    15   ar
    25    15    16   ar
    26    16    17   ar
    27    17    18   ar
    28    18     9   ar
    29    17    12   ar
    30     6     1   ar
    31    32    33    1
    32     5     7    1
    33     5     8    1
    34    23    25    1
    35    23    26    1
@<TRIPOS>MOLECULE
*****
 33 35 0 0 0
SMALL
GASTEIGER

@<TRIPOS>ATOM
      1 C         142.5907  140.0639  164.6325 C.ar    1  UNL1        0.1079
      2 N         141.6975  139.5429  165.7191 N.ar    1  UNL1       -0.1682
      3 N         141.8924  140.4037  166.9320 N.ar    1  UNL1       -0.2417
      4 C         142.9061  141.4567  166.5950 C.ar    1  UNL1        0.1279
      5 N         143.4013  142.5311  167.5172 N.pl3   1  UNL1       -0.3427
      6 C         143.3378  141.2467  165.1739 C.ar    1  UNL1        0.1031
      7 H         143.0561  142.5875  168.4375 H       1  UNL1        0.1437
      8 H         144.0715  143.1798  167.2022 H       1  UNL1        0.1437
      9 C         142.0091  138.0621  158.0824 C.ar    1  UNL1        0.2248
     10 C         140.8052  138.8752  158.4561 C.ar    1  UNL1        0.0577
     11 C         140.6808  139.4381  159.8409 C.ar    1  UNL1        0.0063
     12 C         141.7602  139.1880  160.8519 C.ar    1  UNL1        0.0180
     13 C         141.6358  139.7510  162.2367 C.ar    1  UNL1        0.0031
     14 C         142.7152  139.5009  163.2478 C.ar    1  UNL1        0.0197
     15 C         143.9191  138.6878  162.8741 C.ar    1  UNL1        0.0031
     16 C         144.0435  138.1249  161.4893 C.ar    1  UNL1        0.0193
     17 C         142.9640  138.3750  160.4782 C.ar    1  UNL1        0.0844
     18 N         143.0885  137.8121  159.0934 N.ar    1  UNL1       -0.2117
     19 O         142.1335  137.4992  156.6976 O.3     1  UNL1       -0.4602
     20 C         143.0765  135.0784  156.6788 C.3     1  UNL1        0.0512
     21 C         143.2392  136.5383  156.3752 C.3     1  UNL1        0.2072
     22 C         144.3402  142.0742  164.4255 C.2     1  UNL1        0.2470
     23 N         143.9984  143.4754  164.0135 N.am    1  UNL1       -0.3252
     24 O         145.6848  141.5005  164.0890 O.2     1  UNL1       -0.2702
     25 H         143.1160  143.8520  164.2343 H       1  UNL1        0.1453
     26 H         144.6564  144.0184  163.5223 H       1  UNL1        0.1453
     27 C         141.1959  140.2402  168.2504 C.3     1  UNL1        0.0903
     28 C         140.0314  141.0317  167.7334 C.3     1  UNL1        0.0246
     29 C         142.3606  139.4487  168.7674 C.3     1  UNL1        0.0246
     30 C         140.4995  140.0767  169.5688 C.3     1  UNL1        0.0543
     31 C         140.5643  141.1715  170.5921 C.3     1  UNL1        0.1391
     32 O         140.9195  140.8496  172.0135 O.3     1  UNL1       -0.3819
     33 H         140.2210  140.3023  172.4053 H       1  UNL1        0.2104
@<TRIPOS>BOND
     1    20    21    1
     2    21    19    1
     3    19     9    1
     4     9    10   ar
     5    10    11   ar
     6    11    12   ar
     7    12    13   ar
     8    13    14   ar
     9    14     1    1
    10     1     2   ar
    11     2     3   ar
    12     3    27    1
    13    27    28    1
    14    27    29    1
    15    27    30    1
    16    30    31    1
    17    31    32    1
    18     3     4   ar
    19     4     5    1
    20     4     6   ar
    21     6    22    1
    22    22    23   am
    23    22    24    2
    24    14    15   ar
    25    15    16   ar
    26    16    17   ar
    27    17    18   ar
    28    18     9   ar
    29    17    12   ar
    30     6     1   ar
    31    32    33    1
    32     5     7    1
    33     5     8    1
    34    23    25    1
    35    23    26    1
@<TRIPOS>MOLECULE
*****
 33 35 0 0 0
SMALL
GASTEIGER

@<TRIPOS>ATOM
      1 C         142.6340  140.5111  162.1211 C.ar    1  UNL1        0.1079
      2 N         141.7768  139.5858  161.3093 N.ar    1  UNL1       -0.1682
      3 N         142.3109  139.5692  159.9077 N.ar    1  UNL1       -0.2417
      4 C         143.4982  140.4843  159.8533 C.ar    1  UNL1        0.1279
      5 N         144.3384  140.7675  158.6434 N.pl3   1  UNL1       -0.3427
      6 C         143.6980  141.0664  161.2213 C.ar    1  UNL1        0.1031
      7 H         144.1269  140.3345  157.7849 H       1  UNL1        0.1437
      8 H         145.1013  141.3864  158.7078 H       1  UNL1        0.1437
      9 C         142.2190  140.7225  168.9792 C.ar    1  UNL1        0.2248
     10 C         142.6833  139.3600  168.5571 C.ar    1  UNL1        0.0577
     11 C         142.8592  139.0453  167.1011 C.ar    1  UNL1        0.0063
     12 C         142.5707  140.0929  166.0672 C.ar    1  UNL1        0.0180
     13 C         142.7466  139.7782  164.6111 C.ar    1  UNL1        0.0031
     14 C         142.4581  140.8258  163.5772 C.ar    1  UNL1        0.0197
     15 C         141.9938  142.1883  163.9992 C.ar    1  UNL1        0.0031
     16 C         141.8179  142.5031  165.4552 C.ar    1  UNL1        0.0193
     17 C         142.1064  141.4554  166.4892 C.ar    1  UNL1        0.0844
     18 N         141.9305  141.7701  167.9452 N.ar    1  UNL1       -0.2117
     19 O         142.0432  141.0372  170.4352 O.3     1  UNL1       -0.4602
     20 C         139.5242  140.4177  170.2904 C.3     1  UNL1        0.0512
     21 C         140.7338  140.7555  171.1106 C.3     1  UNL1        0.2072
     22 C         144.7727  142.0339  161.6194 C.2     1  UNL1        0.2470
     23 N         144.8257  143.3958  160.9930 N.am    1  UNL1       -0.3252
     24 O         145.7948  141.6396  162.6442 O.2     1  UNL1       -0.2702
     25 H         144.1549  143.6547  160.3204 H       1  UNL1        0.1453
     26 H         145.5312  144.0308  161.2544 H       1  UNL1        0.1453
     27 C         141.7554  138.7767  158.7618 C.3     1  UNL1        0.0903
     28 C         142.7437  137.6829  159.0390 C.3     1  UNL1        0.0246
     29 C         140.7670  139.8706  158.4845 C.3     1  UNL1        0.0246
     30 C         141.1998  137.9843  157.6158 C.3     1  UNL1        0.0543
     31 C         139.7181  137.9340  157.3872 C.3     1  UNL1        0.1391
     32 O         139.1389  136.9234  156.4421 O.3     1  UNL1       -0.3819
     33 H         139.4359  137.1175  155.5394 H       1  UNL1        0.2104
@<TRIPOS>BOND
     1    20    21    1
     2    21    19    1
     3    19     9    1
     4     9    10   ar
     5    10    11   ar
     6    11    12   ar
     7    12    13   ar
     8    13    14   ar
     9    14     1    1
    10     1     2   ar
    11     2     3   ar
    12     3    27    1
    13    27    28    1
    14    27    29    1
    15    27    30    1
    16    30    31    1
    17    31    32    1
    18     3     4   ar
    19     4     5    1
    20     4     6   ar
    21     6    22    1
    22    22    23   am
    23    22    24    2
    24    14    15   ar
    25    15    16   ar
    26    16    17   ar
    27    17    18   ar
    28    18     9   ar
    29    17    12   ar
    30     6     1   ar
    31    32    33    1
    32     5     7    1
    33     5     8    1
    34    23    25    1
    35    23    26    1
@<TRIPOS>MOLECULE
*****
 33 35 0 0 0
SMALL
GASTEIGER

@<TRIPOS>ATOM
      1 C         140.6596  142.3665  165.2461 C.ar    1  UNL1        0.1079
      2 N         139.9249  141.8909  166.4643 N.ar    1  UNL1       -0.1682
      3 N         140.8862  141.8934  167.6158 N.ar    1  UNL1       -0.2417
      4 C         142.2150  142.3705  167.1093 C.ar    1  UNL1        0.1279
      5 N         143.4645  142.5277  167.9242 N.pl3   1  UNL1       -0.3427
      6 C         142.0750  142.6629  165.6447 C.ar    1  UNL1        0.1031
      7 H         143.4569  142.3089  168.8841 H       1  UNL1        0.1437
      8 H         144.2921  142.8496  167.4992 H       1  UNL1        0.1437
      9 C         138.6671  141.9711  158.6793 C.ar    1  UNL1        0.2248
     10 C         139.5696  140.8138  158.9891 C.ar    1  UNL1        0.0577
     11 C         140.1485  140.6614  160.3644 C.ar    1  UNL1        0.0063
     12 C         139.8251  141.6663  161.4299 C.ar    1  UNL1        0.0180
     13 C         140.4041  141.5139  162.8053 C.ar    1  UNL1        0.0031
     14 C         140.0806  142.5189  163.8708 C.ar    1  UNL1        0.0197
     15 C         139.1782  143.6764  163.5610 C.ar    1  UNL1        0.0031
     16 C         138.5992  143.8288  162.1856 C.ar    1  UNL1        0.0193
     17 C         138.9227  142.8237  161.1201 C.ar    1  UNL1        0.0844
     18 N         138.3437  142.9761  159.7448 N.ar    1  UNL1       -0.2117
     19 O         138.0881  142.1236  157.3039 O.3     1  UNL1       -0.4602
     20 C         139.3289  144.2480  156.4688 C.3     1  UNL1        0.0512
     21 C         138.8637  142.8406  156.2389 C.3     1  UNL1        0.2072
     22 C         143.1599  143.1638  164.7380 C.2     1  UNL1        0.2470
     23 N         142.9044  144.3377  163.8399 N.am    1  UNL1       -0.3252
     24 O         144.5004  142.4907  164.7293 O.2     1  UNL1       -0.2702
     25 H         142.0246  144.7796  163.8456 H       1  UNL1        0.1453
     26 H         143.6164  144.6664  163.2449 H       1  UNL1        0.1453
     27 C         140.5736  141.4897  169.0262 C.3     1  UNL1        0.0903
     28 C         140.8217  140.0538  168.6702 C.3     1  UNL1        0.0246
     29 C         140.3255  142.9256  169.3822 C.3     1  UNL1        0.0246
     30 C         140.2610  141.0860  170.4366 C.3     1  UNL1        0.0543
     31 C         141.1445  141.5408  171.5603 C.3     1  UNL1        0.1391
     32 O         142.2769  140.6726  172.0225 O.3     1  UNL1       -0.3819
     33 H         141.9218  139.8593  172.4142 H       1  UNL1        0.2104
@<TRIPOS>BOND
     1    20    21    1
     2    21    19    1
     3    19     9    1
     4     9    10   ar
     5    10    11   ar
     6    11    12   ar
     7    12    13   ar
     8    13    14   ar
     9    14     1    1
    10     1     2   ar
    11     2     3   ar
    12     3    27    1
    13    27    28    1
    14    27    29    1
    15    27    30    1
    16    30    31    1
    17    31    32    1
    18     3     4   ar
    19     4     5    1
    20     4     6   ar
    21     6    22    1
    22    22    23   am
    23    22    24    2
    24    14    15   ar
    25    15    16   ar
    26    16    17   ar
    27    17    18   ar
    28    18     9   ar
    29    17    12   ar
    30     6     1   ar
    31    32    33    1
    32     5     7    1
    33     5     8    1
    34    23    25    1
    35    23    26    1
