@<TRIPOS>MOLECULE
*****
 26 28 0 0 0
SMALL
GASTEIGER

@<TRIPOS>ATOM
      1 C         142.5554  139.6414  165.0835 C.ar    1  UNL1        0.1293
      2 C         141.6803  139.8721  166.2797 C.ar    1  UNL1        0.0486
      3 C         141.7667  141.1658  167.0339 C.ar    1  UNL1        0.0519
      4 C         142.7282  142.2288  166.5920 C.ar    1  UNL1        0.0294
      5 C         143.6034  141.9982  165.3958 C.ar    1  UNL1        0.0621
      6 N         143.5170  140.7045  164.6416 N.ar    1  UNL1       -0.2351
      7 N         140.8915  141.3964  168.2302 N.pl3   1  UNL1       -0.3027
      8 C         139.9690  140.3130  168.7045 C.3     1  UNL1        0.1231
      9 C         139.0938  140.5435  169.9007 C.3     1  UNL1        0.1636
     10 O         139.1411  141.8576  170.6226 O.3     1  UNL1       -0.3501
     11 C         140.0637  142.9411  170.1482 C.3     1  UNL1        0.1636
     12 C         140.9389  142.7105  168.9520 C.3     1  UNL1        0.1231
     13 N         142.4690  138.3477  164.3293 N.pl3   1  UNL1       -0.3181
     14 H         143.1737  138.1050  163.6860 H       1  UNL1        0.1482
     15 C         140.0263  137.6338  163.8068 C.3     1  UNL1        0.0230
     16 C         141.3091  137.4239  164.5552 C.3     1  UNL1        0.0882
     17 C         144.5650  143.0612  164.9538 C.3     1  UNL1        0.0556
     18 C         144.0591  144.4254  164.5890 C.3     1  UNL1        0.0916
     19 C         142.8245  144.5677  163.7490 C.ar    1  UNL1        0.2053
     20 N         142.7854  144.7103  162.2563 N.ar    1  UNL1       -0.2168
     21 C         141.3490  144.8231  161.8390 C.ar    1  UNL1        0.0923
     22 C         140.8490  144.9811  160.4336 C.3     1  UNL1        0.0551
     23 C         140.5004  144.7502  163.0738 C.ar    1  UNL1        0.1377
     24 O         141.4124  144.5924  164.2542 O.2     1  UNL1       -0.4430
     25 C         139.0030  144.8225  163.1200 C.3     1  UNL1        0.0658
     26 C         138.2719  144.4409  164.3730 C.3     1  UNL1        0.0085
@<TRIPOS>BOND
     1    15    16    1
     2    16    13    1
     3    13     1    1
     4     1     2   ar
     5     2     3   ar
     6     3     7    1
     7     7     8    1
     8     8     9    1
     9     9    10    1
    10    10    11    1
    11    11    12    1
    12     3     4   ar
    13     4     5   ar
    14     5    17    1
    15    17    18    1
    16    18    19    1
    17    19    20   ar
    18    20    21   ar
    19    21    22    1
    20    21    23   ar
    21    23    25    1
    22    25    26    1
    23    23    24   ar
    24     5     6   ar
    25     6     1   ar
    26    12     7    1
    27    24    19   ar
    28    13    14    1
@<TRIPOS>MOLECULE
*****
 26 28 0 0 0
SMALL
GASTEIGER

@<TRIPOS>ATOM
      1 C         142.7931  142.8406  164.9224 C.ar    1  UNL1        0.1293
      2 C         142.8778  142.3774  166.3465 C.ar    1  UNL1        0.0486
      3 C         141.6443  142.3452  167.1993 C.ar    1  UNL1        0.0519
      4 C         140.3260  142.7763  166.6280 C.ar    1  UNL1        0.0294
      5 C         140.2414  143.2395  165.2039 C.ar    1  UNL1        0.0621
      6 N         141.4749  143.2716  164.3510 N.ar    1  UNL1       -0.2351
      7 N         141.7290  141.8820  168.6236 N.pl3   1  UNL1       -0.3027
      8 C         142.7395  140.8453  169.0162 C.3     1  UNL1        0.1231
      9 C         142.8242  140.3821  170.4403 C.3     1  UNL1        0.1636
     10 O         141.8985  140.9556  171.4719 O.3     1  UNL1       -0.3501
     11 C         140.8880  141.9923  171.0793 C.3     1  UNL1        0.1636
     12 C         140.8033  142.4555  169.6551 C.3     1  UNL1        0.1231
     13 N         144.0267  142.8727  164.0695 N.pl3   1  UNL1       -0.3181
     14 H         144.0825  143.4941  163.3079 H       1  UNL1        0.1482
     15 C         145.1307  140.5246  163.9376 C.3     1  UNL1        0.0230
     16 C         145.1751  141.9581  164.3770 C.3     1  UNL1        0.0882
     17 C         138.9231  143.6706  164.6325 C.3     1  UNL1        0.0556
     18 C         137.7880  142.6940  164.5457 C.3     1  UNL1        0.0916
     19 C         138.0515  141.2708  164.1516 C.ar    1  UNL1        0.2053
     20 N         137.7784  140.6632  162.8076 N.ar    1  UNL1       -0.2168
     21 C         138.1925  139.2222  162.8577 C.ar    1  UNL1        0.0923
     22 C         138.0948  138.2371  161.7308 C.3     1  UNL1        0.0551
     23 C         138.7213  138.9394  164.2327 C.ar    1  UNL1        0.1377
     24 O         138.6341  140.2055  165.0323 O.2     1  UNL1       -0.4430
     25 C         139.2453  137.6220  164.7220 C.3     1  UNL1        0.0658
     26 C         140.7080  137.3086  164.6113 C.3     1  UNL1        0.0085
@<TRIPOS>BOND
     1    15    16    1
     2    16    13    1
     3    13     1    1
     4     1     2   ar
     5     2     3   ar
     6     3     7    1
     7     7     8    1
     8     8     9    1
     9     9    10    1
    10    10    11    1
    11    11    12    1
    12     3     4   ar
    13     4     5   ar
    14     5    17    1
    15    17    18    1
    16    18    19    1
    17    19    20   ar
    18    20    21   ar
    19    21    22    1
    20    21    23   ar
    21    23    25    1
    22    25    26    1
    23    23    24   ar
    24     5     6   ar
    25     6     1   ar
    26    12     7    1
    27    24    19   ar
    28    13    14    1
@<TRIPOS>MOLECULE
*****
 26 28 0 0 0
SMALL
GASTEIGER

@<TRIPOS>ATOM
      1 C         142.6312  143.4380  164.6013 C.ar    1  UNL1        0.1293
      2 C         142.6163  142.4771  165.7530 C.ar    1  UNL1        0.0486
      3 C         141.3609  142.2816  166.5504 C.ar    1  UNL1        0.0519
      4 C         140.1205  143.0470  166.1961 C.ar    1  UNL1        0.0294
      5 C         140.1355  144.0078  165.0444 C.ar    1  UNL1        0.0621
      6 N         141.3908  144.2033  164.2470 N.ar    1  UNL1       -0.2351
      7 N         141.3460  141.3206  167.7021 N.pl3   1  UNL1       -0.3027
      8 C         140.1754  141.2917  168.6396 C.3     1  UNL1        0.1231
      9 C         140.1605  140.3308  169.7913 C.3     1  UNL1        0.1636
     10 O         141.3161  139.3987  170.0055 O.3     1  UNL1       -0.3501
     11 C         142.4867  139.4277  169.0680 C.3     1  UNL1        0.1636
     12 C         142.5017  140.3886  167.9163 C.3     1  UNL1        0.1231
     13 N         143.8866  143.6335  163.8039 N.pl3   1  UNL1       -0.3181
     14 H         144.2903  144.5286  163.7329 H       1  UNL1        0.1482
     15 C         145.7070  141.7809  163.7383 C.3     1  UNL1        0.0230
     16 C         144.5268  142.4652  163.1146 C.3     1  UNL1        0.0882
     17 C         138.8951  144.7733  164.6901 C.3     1  UNL1        0.0556
     18 C         137.6867  144.0475  164.1773 C.3     1  UNL1        0.0916
     19 C         137.8249  143.0578  163.0586 C.ar    1  UNL1        0.2053
     20 N         138.2357  143.3708  161.6503 N.ar    1  UNL1       -0.2168
     21 C         138.2413  142.0878  160.8731 C.ar    1  UNL1        0.0923
     22 C         138.5926  141.9371  159.4226 C.3     1  UNL1        0.0551
     23 C         137.8340  140.9819  161.8012 C.ar    1  UNL1        0.1377
     24 O         137.5766  141.5814  163.1518 O.2     1  UNL1       -0.4430
     25 C         137.7064  139.5313  161.4416 C.3     1  UNL1        0.0658
     26 C         138.2847  138.4813  162.3434 C.3     1  UNL1        0.0085
@<TRIPOS>BOND
     1    15    16    1
     2    16    13    1
     3    13     1    1
     4     1     2   ar
     5     2     3   ar
     6     3     7    1
     7     7     8    1
     8     8     9    1
     9     9    10    1
    10    10    11    1
    11    11    12    1
    12     3     4   ar
    13     4     5   ar
    14     5    17    1
    15    17    18    1
    16    18    19    1
    17    19    20   ar
    18    20    21   ar
    19    21    22    1
    20    21    23   ar
    21    23    25    1
    22    25    26    1
    23    23    24   ar
    24     5     6   ar
    25     6     1   ar
    26    12     7    1
    27    24    19   ar
    28    13    14    1
@<TRIPOS>MOLECULE
*****
 26 28 0 0 0
SMALL
GASTEIGER

@<TRIPOS>ATOM
      1 C         140.0995  142.4592  165.0386 C.ar    1  UNL1        0.1293
      2 C         140.5563  142.6517  166.4543 C.ar    1  UNL1        0.0486
      3 C         140.4972  141.5085  167.4236 C.ar    1  UNL1        0.0519
      4 C         139.9812  140.1727  166.9772 C.ar    1  UNL1        0.0294
      5 C         139.5244  139.9801  165.5615 C.ar    1  UNL1        0.0621
      6 N         139.5835  141.1234  164.5922 N.ar    1  UNL1       -0.2351
      7 N         140.9540  141.7011  168.8393 N.pl3   1  UNL1       -0.3027
      8 C         140.3246  140.9068  169.9451 C.3     1  UNL1        0.1231
      9 C         140.7814  141.0994  171.3608 C.3     1  UNL1        0.1636
     10 O         141.8677  142.0863  171.6708 O.3     1  UNL1       -0.3501
     11 C         142.4971  142.8807  170.5649 C.3     1  UNL1        0.1636
     12 C         142.0403  142.6880  169.1492 C.3     1  UNL1        0.1231
     13 N         140.1586  143.6024  164.0694 N.pl3   1  UNL1       -0.3181
     14 H         141.0048  143.8198  163.6156 H       1  UNL1        0.1482
     15 C         137.7338  144.2978  164.6909 C.3     1  UNL1        0.0230
     16 C         138.9285  144.4145  163.7915 C.3     1  UNL1        0.0882
     17 C         139.0084  138.6442  165.1150 C.3     1  UNL1        0.0556
     18 C         139.9685  137.5750  164.6850 C.3     1  UNL1        0.0916
     19 C         141.3047  137.9511  164.1165 C.ar    1  UNL1        0.2053
     20 N         141.7561  137.7276  162.7036 N.ar    1  UNL1       -0.2168
     21 C         143.1544  138.2552  162.5749 C.ar    1  UNL1        0.0923
     22 C         143.9928  138.2365  161.3312 C.3     1  UNL1        0.0551
     23 C         143.5671  138.8047  163.9082 C.ar    1  UNL1        0.1377
     24 O         142.4239  138.6168  164.8610 O.2     1  UNL1       -0.4430
     25 C         144.8905  139.4320  164.2320 C.3     1  UNL1        0.0658
     26 C         145.1904  140.8289  163.7750 C.3     1  UNL1        0.0085
@<TRIPOS>BOND
     1    15    16    1
     2    16    13    1
     3    13     1    1
     4     1     2   ar
     5     2     3   ar
     6     3     7    1
     7     7     8    1
     8     8     9    1
     9     9    10    1
    10    10    11    1
    11    11    12    1
    12     3     4   ar
    13     4     5   ar
    14     5    17    1
    15    17    18    1
    16    18    19    1
    17    19    20   ar
    18    20    21   ar
    19    21    22    1
    20    21    23   ar
    21    23    25    1
    22    25    26    1
    23    23    24   ar
    24     5     6   ar
    25     6     1   ar
    26    12     7    1
    27    24    19   ar
    28    13    14    1
@<TRIPOS>MOLECULE
*****
 26 28 0 0 0
SMALL
GASTEIGER

@<TRIPOS>ATOM
      1 C         140.5317  141.1936  168.1278 C.ar    1  UNL1        0.1293
      2 C         140.6401  142.2901  167.1100 C.ar    1  UNL1        0.0486
      3 C         139.8900  142.1883  165.8151 C.ar    1  UNL1        0.0519
      4 C         139.0314  140.9900  165.5379 C.ar    1  UNL1        0.0294
      5 C         138.9230  139.8935  166.5556 C.ar    1  UNL1        0.0621
      6 N         139.6732  139.9953  167.8506 N.ar    1  UNL1       -0.2351
      7 N         139.9984  143.2849  164.7973 N.pl3   1  UNL1       -0.3027
      8 C         141.3222  143.9421  164.5411 C.3     1  UNL1        0.1231
      9 C         141.4307  145.0387  163.5234 C.3     1  UNL1        0.1636
     10 O         140.2154  145.4780  162.7617 O.3     1  UNL1       -0.3501
     11 C         138.8916  144.8207  163.0179 C.3     1  UNL1        0.1636
     12 C         138.7832  143.7242  164.0357 C.3     1  UNL1        0.1231
     13 N         141.2818  141.2955  169.4227 N.pl3   1  UNL1       -0.3181
     14 H         141.1928  140.5867  170.1002 H       1  UNL1        0.1482
     15 C         143.6584  142.3110  169.6883 C.3     1  UNL1        0.0230
     16 C         142.1676  142.4771  169.6855 C.3     1  UNL1        0.0882
     17 C         138.0644  138.6951  166.2785 C.3     1  UNL1        0.0556
     18 C         138.6427  137.5057  165.5708 C.3     1  UNL1        0.0916
     19 C         139.3048  137.6761  164.2356 C.ar    1  UNL1        0.2053
     20 N         138.6101  137.9619  162.9372 N.ar    1  UNL1       -0.2168
     21 C         139.6537  138.0531  161.8635 C.ar    1  UNL1        0.0923
     22 C         139.4020  138.3259  160.4102 C.3     1  UNL1        0.0551
     23 C         140.9933  137.8237  162.4984 C.ar    1  UNL1        0.1377
     24 O         140.7776  137.5907  163.9644 O.2     1  UNL1       -0.4430
     25 C         142.3162  137.8267  161.7915 C.3     1  UNL1        0.0658
     26 C         143.5082  138.4726  162.4333 C.3     1  UNL1        0.0085
@<TRIPOS>BOND
     1    15    16    1
     2    16    13    1
     3    13     1    1
     4     1     2   ar
     5     2     3   ar
     6     3     7    1
     7     7     8    1
     8     8     9    1
     9     9    10    1
    10    10    11    1
    11    11    12    1
    12     3     4   ar
    13     4     5   ar
    14     5    17    1
    15    17    18    1
    16    18    19    1
    17    19    20   ar
    18    20    21   ar
    19    21    22    1
    20    21    23   ar
    21    23    25    1
    22    25    26    1
    23    23    24   ar
    24     5     6   ar
    25     6     1   ar
    26    12     7    1
    27    24    19   ar
    28    13    14    1
@<TRIPOS>MOLECULE
*****
 26 28 0 0 0
SMALL
GASTEIGER

@<TRIPOS>ATOM
      1 C         140.9022  142.4173  167.2755 C.ar    1  UNL1        0.1293
      2 C         142.0887  142.1096  166.4111 C.ar    1  UNL1        0.0486
      3 C         142.1817  142.6895  165.0308 C.ar    1  UNL1        0.0519
      4 C         141.0880  143.5771  164.5150 C.ar    1  UNL1        0.0294
      5 C         139.9015  143.8849  165.3795 C.ar    1  UNL1        0.0621
      6 N         139.8085  143.3050  166.7597 N.ar    1  UNL1       -0.2351
      7 N         143.3683  142.3817  164.1663 N.pl3   1  UNL1       -0.3027
      8 C         143.5433  143.0870  162.8541 C.3     1  UNL1        0.1231
      9 C         144.7299  142.7793  161.9897 C.3     1  UNL1        0.1636
     10 O         145.7415  141.7662  162.4374 O.3     1  UNL1       -0.3501
     11 C         145.5664  141.0609  163.7496 C.3     1  UNL1        0.1636
     12 C         144.3798  141.3687  164.6141 C.3     1  UNL1        0.1231
     13 N         140.8092  141.8374  168.6558 N.pl3   1  UNL1       -0.3181
     14 H         141.2008  142.3195  169.4196 H       1  UNL1        0.1482
     15 C         139.0158  140.4126  169.8819 C.3     1  UNL1        0.0230
     16 C         140.1196  140.5231  168.8722 C.3     1  UNL1        0.0882
     17 C         138.8078  144.7725  164.8637 C.3     1  UNL1        0.0556
     18 C         137.5924  144.1704  164.2233 C.3     1  UNL1        0.0916
     19 C         137.7460  143.1508  163.1337 C.ar    1  UNL1        0.2053
     20 N         138.1714  143.4265  161.7220 N.ar    1  UNL1       -0.2168
     21 C         138.1895  142.1227  160.9804 C.ar    1  UNL1        0.0923
     22 C         138.5572  141.9335  159.5385 C.3     1  UNL1        0.0551
     23 C         137.7753  141.0413  161.9339 C.ar    1  UNL1        0.1377
     24 O         137.5012  141.6768  163.2647 O.2     1  UNL1       -0.4430
     25 C         137.6561  139.5810  161.6129 C.3     1  UNL1        0.0658
     26 C         138.4520  138.5748  162.3900 C.3     1  UNL1        0.0085
@<TRIPOS>BOND
     1    15    16    1
     2    16    13    1
     3    13     1    1
     4     1     2   ar
     5     2     3   ar
     6     3     7    1
     7     7     8    1
     8     8     9    1
     9     9    10    1
    10    10    11    1
    11    11    12    1
    12     3     4   ar
    13     4     5   ar
    14     5    17    1
    15    17    18    1
    16    18    19    1
    17    19    20   ar
    18    20    21   ar
    19    21    22    1
    20    21    23   ar
    21    23    25    1
    22    25    26    1
    23    23    24   ar
    24     5     6   ar
    25     6     1   ar
    26    12     7    1
    27    24    19   ar
    28    13    14    1
@<TRIPOS>MOLECULE
*****
 26 28 0 0 0
SMALL
GASTEIGER

@<TRIPOS>ATOM
      1 C         141.9384  142.2364  166.9303 C.ar    1  UNL1        0.1293
      2 C         140.9606  142.9754  166.0657 C.ar    1  UNL1        0.0486
      3 C         141.3494  143.3871  164.6767 C.ar    1  UNL1        0.0519
      4 C         142.7160  143.0597  164.1523 C.ar    1  UNL1        0.0294
      5 C         143.6939  142.3207  165.0169 C.ar    1  UNL1        0.0621
      6 N         143.3051  141.9091  166.4059 N.ar    1  UNL1       -0.2351
      7 N         140.3714  144.1262  163.8121 N.pl3   1  UNL1       -0.3027
      8 C         140.8398  145.2632  162.9531 C.3     1  UNL1        0.1231
      9 C         139.8619  146.0022  162.0885 C.3     1  UNL1        0.1636
     10 O         138.4156  145.6043  162.0828 O.3     1  UNL1       -0.3501
     11 C         137.9473  144.4673  162.9418 C.3     1  UNL1        0.1636
     12 C         138.9252  143.7282  163.8065 C.3     1  UNL1        0.1231
     13 N         141.5496  141.8247  168.3193 N.pl3   1  UNL1       -0.3181
     14 H         142.0650  141.1299  168.7892 H       1  UNL1        0.1482
     15 C         140.5276  143.8192  169.6337 C.3     1  UNL1        0.0230
     16 C         140.3756  142.4718  168.9924 C.3     1  UNL1        0.0882
     17 C         145.0606  141.9933  164.4925 C.3     1  UNL1        0.0556
     18 C         145.3284  140.6485  163.8846 C.3     1  UNL1        0.0916
     19 C         144.1901  139.8176  163.3707 C.ar    1  UNL1        0.2053
     20 N         143.6798  139.7974  161.9603 N.ar    1  UNL1       -0.2168
     21 C         142.5366  138.8284  161.8948 C.ar    1  UNL1        0.0923
     22 C         141.7311  138.4963  160.6738 C.3     1  UNL1        0.0551
     23 C         142.3404  138.2498  163.2648 C.ar    1  UNL1        0.1377
     24 O         143.3623  138.8612  164.1769 O.2     1  UNL1       -0.4430
     25 C         141.3042  137.2376  163.6543 C.3     1  UNL1        0.0658
     26 C         140.3053  137.5608  164.7256 C.3     1  UNL1        0.0085
@<TRIPOS>BOND
     1    15    16    1
     2    16    13    1
     3    13     1    1
     4     1     2   ar
     5     2     3   ar
     6     3     7    1
     7     7     8    1
     8     8     9    1
     9     9    10    1
    10    10    11    1
    11    11    12    1
    12     3     4   ar
    13     4     5   ar
    14     5    17    1
    15    17    18    1
    16    18    19    1
    17    19    20   ar
    18    20    21   ar
    19    21    22    1
    20    21    23   ar
    21    23    25    1
    22    25    26    1
    23    23    24   ar
    24     5     6   ar
    25     6     1   ar
    26    12     7    1
    27    24    19   ar
    28    13    14    1
@<TRIPOS>MOLECULE
*****
 26 28 0 0 0
SMALL
GASTEIGER

@<TRIPOS>ATOM
      1 C         143.5537  141.9684  165.5664 C.ar    1  UNL1        0.1293
      2 C         143.0033  142.0284  166.9605 C.ar    1  UNL1        0.0486
      3 C         142.2886  140.8420  167.5363 C.ar    1  UNL1        0.0519
      4 C         142.1242  139.5956  166.7181 C.ar    1  UNL1        0.0294
      5 C         142.6745  139.5357  165.3240 C.ar    1  UNL1        0.0621
      6 N         143.3892  140.7221  164.7482 N.ar    1  UNL1       -0.2351
      7 N         141.7383  140.9019  168.9305 N.pl3   1  UNL1       -0.3027
      8 C         142.3289  141.8521  169.9297 C.3     1  UNL1        0.1231
      9 C         141.7786  141.9121  171.3238 C.3     1  UNL1        0.1636
     10 O         140.6377  141.0219  171.7188 O.3     1  UNL1       -0.3501
     11 C         140.0472  140.0717  170.7196 C.3     1  UNL1        0.1636
     12 C         140.5975  140.0118  169.3254 C.3     1  UNL1        0.1231
     13 N         144.2684  143.1548  164.9905 N.pl3   1  UNL1       -0.3181
     14 H         144.7503  143.7750  165.5841 H       1  UNL1        0.1482
     15 C         143.8974  144.7533  162.9763 C.3     1  UNL1        0.0230
     16 C         144.2489  143.3964  163.5103 C.3     1  UNL1        0.0882
     17 C         142.5101  138.2893  164.5057 C.3     1  UNL1        0.0556
     18 C         141.1495  137.6841  164.3260 C.3     1  UNL1        0.0916
     19 C         140.0545  138.4793  163.6789 C.ar    1  UNL1        0.2053
     20 N         139.3621  138.1415  162.3918 N.ar    1  UNL1       -0.2168
     21 C         138.3393  139.2054  162.1227 C.ar    1  UNL1        0.0923
     22 C         137.4179  139.2637  160.9404 C.3     1  UNL1        0.0551
     23 C         138.3997  140.2005  163.2435 C.ar    1  UNL1        0.1377
     24 O         139.4597  139.7518  164.2052 O.2     1  UNL1       -0.4430
     25 C         137.5493  141.4287  163.3787 C.3     1  UNL1        0.0658
     26 C         137.8364  142.4241  164.4635 C.3     1  UNL1        0.0085
@<TRIPOS>BOND
     1    15    16    1
     2    16    13    1
     3    13     1    1
     4     1     2   ar
     5     2     3   ar
     6     3     7    1
     7     7     8    1
     8     8     9    1
     9     9    10    1
    10    10    11    1
    11    11    12    1
    12     3     4   ar
    13     4     5   ar
    14     5    17    1
    15    17    18    1
    16    18    19    1
    17    19    20   ar
    18    20    21   ar
    19    21    22    1
    20    21    23   ar
    21    23    25    1
    22    25    26    1
    23    23    24   ar
    24     5     6   ar
    25     6     1   ar
    26    12     7    1
    27    24    19   ar
    28    13    14    1
@<TRIPOS>MOLECULE
*****
 26 28 0 0 0
SMALL
GASTEIGER

@<TRIPOS>ATOM
      1 C         140.5329  141.8401  167.2097 C.ar    1  UNL1        0.1293
      2 C         140.4401  142.6975  165.9825 C.ar    1  UNL1        0.0486
      3 C         139.5748  142.2716  164.8336 C.ar    1  UNL1        0.0519
      4 C         138.8024  140.9882  164.9120 C.ar    1  UNL1        0.0294
      5 C         138.8951  140.1308  166.1392 C.ar    1  UNL1        0.0621
      6 N         139.7604  140.5567  167.2881 N.ar    1  UNL1       -0.2351
      7 N         139.4821  143.1291  163.6063 N.pl3   1  UNL1       -0.3027
      8 C         139.5006  142.4965  162.2463 C.3     1  UNL1        0.1231
      9 C         139.4079  143.3539  161.0190 C.3     1  UNL1        0.1636
     10 O         139.2966  144.8439  161.1517 O.3     1  UNL1       -0.3501
     11 C         139.2781  145.4765  162.5117 C.3     1  UNL1        0.1636
     12 C         139.3709  144.6190  163.7390 C.3     1  UNL1        0.1231
     13 N         141.3981  142.2661  168.3586 N.pl3   1  UNL1       -0.3181
     14 H         142.3760  142.3032  168.2510 H       1  UNL1        0.1482
     15 C         140.3674  144.0551  169.9356 C.3     1  UNL1        0.0230
     16 C         140.7734  142.6355  169.6713 C.3     1  UNL1        0.0882
     17 C         138.1226  138.8473  166.2177 C.3     1  UNL1        0.0556
     18 C         138.6237  137.6257  165.5060 C.3     1  UNL1        0.0916
     19 C         139.2597  137.7535  164.1535 C.ar    1  UNL1        0.2053
     20 N         140.7201  137.5994  163.8480 N.ar    1  UNL1       -0.2168
     21 C         140.9100  137.8086  162.3747 C.ar    1  UNL1        0.0923
     22 C         142.2140  137.7454  161.6361 C.3     1  UNL1        0.0551
     23 C         139.5669  138.0919  161.7699 C.ar    1  UNL1        0.1377
     24 O         138.5470  138.0579  162.8692 O.2     1  UNL1       -0.4430
     25 C         139.2920  138.3619  160.3203 C.3     1  UNL1        0.0658
     26 C         138.5855  139.6207  159.9125 C.3     1  UNL1        0.0085
@<TRIPOS>BOND
     1    15    16    1
     2    16    13    1
     3    13     1    1
     4     1     2   ar
     5     2     3   ar
     6     3     7    1
     7     7     8    1
     8     8     9    1
     9     9    10    1
    10    10    11    1
    11    11    12    1
    12     3     4   ar
    13     4     5   ar
    14     5    17    1
    15    17    18    1
    16    18    19    1
    17    19    20   ar
    18    20    21   ar
    19    21    22    1
    20    21    23   ar
    21    23    25    1
    22    25    26    1
    23    23    24   ar
    24     5     6   ar
    25     6     1   ar
    26    12     7    1
    27    24    19   ar
    28    13    14    1
