@<TRIPOS>MOLECULE
*****
 31 33 0 0 0
SMALL
GASTEIGER

@<TRIPOS>ATOM
      1 C         137.6849  140.1810  162.8838 C.ar    1  UNL1        0.1986
      2 N         137.5711  140.1610  161.3882 N.ar    1  UNL1       -0.0331
      3 O         138.1939  138.8894  160.8930 O.2     1  UNL1       -0.2400
      4 N         138.6927  138.1237  162.0825 N.ar    1  UNL1       -0.0391
      5 C         138.3781  138.9219  163.3129 C.ar    1  UNL1        0.2426
      6 C         138.7002  138.5299  164.7245 C.2     1  UNL1        0.3943
      7 N         137.8350  139.0097  165.8521 N.2     1  UNL1        0.1539
      8 O         138.1570  138.6177  167.2637 O.2     1  UNL1       -0.3110
      9 H         137.6166  138.9174  167.9680 H       1  UNL1        0.3605
     10 N         139.8873  137.6582  165.0085 N.pl3   1  UNL1       -0.1942
     11 H         139.7560  136.7402  165.3391 H       1  UNL1        0.2987
     12 C         141.2745  138.1851  164.7888 C.ar    1  UNL1        0.1364
     13 C         142.0158  138.8389  165.9170 C.ar    1  UNL1        0.0425
     14 C         143.4029  139.3658  165.6973 C.ar    1  UNL1        0.0336
     15 C         144.0487  139.2388  164.3494 C.ar    1  UNL1        0.1465
     16 F         145.4358  139.7657  164.1297 F       1  UNL1       -0.2036
     17 C         143.3073  138.5850  163.2212 C.ar    1  UNL1        0.0654
     18 BR        143.9531  138.4580  161.8733 Br      1  UNL1       -0.0465
     19 C         141.9202  138.0581  163.4409 C.ar    1  UNL1        0.0491
     20 N         137.1921  141.2692  163.7909 N.pl3   1  UNL1       -0.3127
     21 H         136.2333  141.3356  164.0043 H       1  UNL1        0.1484
     22 C         138.1599  142.2562  164.3730 C.3     1  UNL1        0.1077
     23 C         138.0913  143.7000  163.9719 C.3     1  UNL1        0.1181
     24 O         139.3753  146.3893  161.3745 O.2     1  UNL1       -0.1411
     25 S         139.5132  145.4490  162.5350 S.O2    1  UNL1        0.0990
     26 O         138.0685  145.1510  162.2626 O.2     1  UNL1       -0.1411
     27 N         140.9290  145.9435  162.5649 N.3     1  UNL1       -0.1677
     28 C         141.6399  145.2466  163.6869 C.3     1  UNL1        0.1117
     29 C         140.6635  144.3213  164.3505 C.3     1  UNL1        0.1158
     30 N         139.3490  144.4464  163.6386 N.3     1  UNL1       -0.1424
     31 H         140.9404  146.9514  162.7209 H       1  UNL1        0.1499
@<TRIPOS>BOND
     1    24    25    2
     2    25    26    2
     3    25    27    1
     4    27    28    1
     5    28    29    1
     6    29    30    1
     7    30    23    1
     8    23    22    1
     9    22    20    1
    10    20     1    1
    11     1     2   ar
    12     2     3   ar
    13     3     4   ar
    14     4     5   ar
    15     5     6    1
    16     6     7    2
    17     7     8    1
    18     6    10    1
    19    10    12    1
    20    12    13   ar
    21    13    14   ar
    22    14    15   ar
    23    15    16    1
    24    15    17   ar
    25    17    18    1
    26    17    19   ar
    27    30    25    1
    28     5     1   ar
    29    19    12   ar
    30    27    31    1
    31    20    21    1
    32     8     9    1
    33    10    11    1
@<TRIPOS>MOLECULE
*****
 31 33 0 0 0
SMALL
GASTEIGER

@<TRIPOS>ATOM
      1 C         137.7938  140.2044  163.0732 C.ar    1  UNL1        0.1986
      2 N         137.7263  139.9734  161.5926 N.ar    1  UNL1       -0.0331
      3 O         138.4582  138.6999  161.2884 O.2     1  UNL1       -0.2400
      4 N         138.9780  138.1438  162.5809 N.ar    1  UNL1       -0.0391
      5 C         138.5674  139.0737  163.6840 C.ar    1  UNL1        0.2426
      6 C         138.8762  138.9028  165.1419 C.2     1  UNL1        0.3943
      7 N         137.7780  139.0068  166.1584 N.2     1  UNL1        0.1539
      8 O         138.0867  138.8359  167.6162 O.2     1  UNL1       -0.3110
      9 H         137.4007  138.9008  168.2512 H       1  UNL1        0.3605
     10 N         140.2831  138.6279  165.5833 N.pl3   1  UNL1       -0.1942
     11 H         140.5703  137.7040  165.7656 H       1  UNL1        0.2987
     12 C         141.2527  139.7608  165.7471 C.ar    1  UNL1        0.1364
     13 C         140.9711  140.8517  166.7373 C.ar    1  UNL1        0.0425
     14 C         141.9406  141.9845  166.9010 C.ar    1  UNL1        0.0336
     15 C         143.1917  142.0263  166.0745 C.ar    1  UNL1        0.1465
     16 F         144.1613  143.1591  166.2383 F       1  UNL1       -0.2036
     17 C         143.4733  140.9353  165.0844 C.ar    1  UNL1        0.0654
     18 BR        144.7244  140.9771  164.2579 Br      1  UNL1       -0.0465
     19 C         142.5038  139.8026  164.9207 C.ar    1  UNL1        0.0491
     20 N         137.1932  141.3627  163.8131 N.pl3   1  UNL1       -0.3127
     21 H         136.2150  141.4645  163.8575 H       1  UNL1        0.1484
     22 C         138.0828  142.3659  164.4853 C.3     1  UNL1        0.1077
     23 C         138.0467  143.8041  164.0606 C.3     1  UNL1        0.1181
     24 O         139.3591  146.3402  161.3269 O.2     1  UNL1       -0.1411
     25 S         139.4898  145.4520  162.5286 S.O2    1  UNL1        0.0990
     26 O         138.0359  145.1742  162.2857 O.2     1  UNL1       -0.1411
     27 N         140.9164  145.9155  162.5203 N.3     1  UNL1       -0.1677
     28 C         141.6248  145.2557  163.6661 C.3     1  UNL1        0.1117
     29 C         140.6361  144.3845  164.3825 C.3     1  UNL1        0.1158
     30 N         139.3165  144.5058  163.6795 N.3     1  UNL1       -0.1424
     31 H         140.9517  146.9290  162.6290 H       1  UNL1        0.1499
@<TRIPOS>BOND
     1    24    25    2
     2    25    26    2
     3    25    27    1
     4    27    28    1
     5    28    29    1
     6    29    30    1
     7    30    23    1
     8    23    22    1
     9    22    20    1
    10    20     1    1
    11     1     2   ar
    12     2     3   ar
    13     3     4   ar
    14     4     5   ar
    15     5     6    1
    16     6     7    2
    17     7     8    1
    18     6    10    1
    19    10    12    1
    20    12    13   ar
    21    13    14   ar
    22    14    15   ar
    23    15    16    1
    24    15    17   ar
    25    17    18    1
    26    17    19   ar
    27    30    25    1
    28     5     1   ar
    29    19    12   ar
    30    27    31    1
    31    20    21    1
    32     8     9    1
    33    10    11    1
@<TRIPOS>MOLECULE
*****
 31 33 0 0 0
SMALL
GASTEIGER

@<TRIPOS>ATOM
      1 C         139.3438  139.9803  167.1866 C.ar    1  UNL1        0.1986
      2 N         138.8423  139.6111  168.5513 N.ar    1  UNL1       -0.0331
      3 O         137.6231  138.7541  168.3809 O.2     1  UNL1       -0.2400
      4 N         137.3711  138.5936  166.9110 N.ar    1  UNL1       -0.0391
      5 C         138.4345  139.3514  166.1728 C.ar    1  UNL1        0.2426
      6 C         138.5656  139.4611  164.6826 C.2     1  UNL1        0.3943
      7 N         139.6195  138.6732  163.9624 N.2     1  UNL1        0.1539
      8 O         139.7506  138.7829  162.4722 O.2     1  UNL1       -0.3110
      9 H         140.4089  138.2907  162.0223 H       1  UNL1        0.3605
     10 N         137.6429  140.3586  163.9126 N.pl3   1  UNL1       -0.1942
     11 H         136.7578  140.0310  163.6324 H       1  UNL1        0.2987
     12 C         138.0687  141.7554  163.5694 C.ar    1  UNL1        0.1364
     13 C         137.8399  142.8706  164.5461 C.ar    1  UNL1        0.0425
     14 C         138.2657  144.2673  164.2029 C.ar    1  UNL1        0.0336
     15 C         138.9204  144.5489  162.8830 C.ar    1  UNL1        0.1465
     16 F         139.3462  145.9457  162.5399 F       1  UNL1       -0.2036
     17 C         139.1492  143.4337  161.9063 C.ar    1  UNL1        0.0654
     18 BR        139.8039  143.7153  160.5864 Br      1  UNL1       -0.0465
     19 C         138.7234  142.0370  162.2495 C.ar    1  UNL1        0.0491
     20 N         140.5439  140.8292  166.8882 N.pl3   1  UNL1       -0.3127
     21 H         141.3596  140.4171  166.5220 H       1  UNL1        0.1484
     22 C         140.5012  142.3059  167.1476 C.3     1  UNL1        0.1077
     23 C         141.0621  142.8598  168.4237 C.3     1  UNL1        0.1181
     24 O         140.5098  142.0912  172.2619 O.2     1  UNL1       -0.1411
     25 S         141.1396  141.8937  170.9149 S.O2    1  UNL1        0.0990
     26 O         140.2317  143.0137  170.5008 O.2     1  UNL1       -0.1411
     27 N         141.9159  140.8150  171.6106 N.3     1  UNL1       -0.1677
     28 C         142.8355  140.1850  170.6069 C.3     1  UNL1        0.1117
     29 C         142.6277  140.8743  169.2910 C.3     1  UNL1        0.1158
     30 N         141.5795  141.9304  169.4813 N.3     1  UNL1       -0.1424
     31 H         141.2761  140.1130  171.9823 H       1  UNL1        0.1499
@<TRIPOS>BOND
     1    24    25    2
     2    25    26    2
     3    25    27    1
     4    27    28    1
     5    28    29    1
     6    29    30    1
     7    30    23    1
     8    23    22    1
     9    22    20    1
    10    20     1    1
    11     1     2   ar
    12     2     3   ar
    13     3     4   ar
    14     4     5   ar
    15     5     6    1
    16     6     7    2
    17     7     8    1
    18     6    10    1
    19    10    12    1
    20    12    13   ar
    21    13    14   ar
    22    14    15   ar
    23    15    16    1
    24    15    17   ar
    25    17    18    1
    26    17    19   ar
    27    30    25    1
    28     5     1   ar
    29    19    12   ar
    30    27    31    1
    31    20    21    1
    32     8     9    1
    33    10    11    1
@<TRIPOS>MOLECULE
*****
 31 33 0 0 0
SMALL
GASTEIGER

@<TRIPOS>ATOM
      1 C         139.0458  140.5795  160.4042 C.ar    1  UNL1        0.1986
      2 N         139.2536  139.1729  159.9265 N.ar    1  UNL1       -0.0331
      3 O         138.5218  138.2538  160.8591 O.2     1  UNL1       -0.2400
      4 N         137.8618  139.0924  161.9132 N.ar    1  UNL1       -0.0391
      5 C         138.1857  140.5298  161.6320 C.ar    1  UNL1        0.2426
      6 C         137.7295  141.7102  162.4374 C.2     1  UNL1        0.3943
      7 N         137.7655  143.0854  161.8391 N.2     1  UNL1        0.1539
      8 O         137.3093  144.2658  162.6444 O.2     1  UNL1       -0.3110
      9 H         137.3318  145.1247  162.2708 H       1  UNL1        0.3605
     10 N         137.2373  141.5156  163.8408 N.pl3   1  UNL1       -0.1942
     11 H         136.2942  141.6932  164.0609 H       1  UNL1        0.2987
     12 C         138.1819  141.0503  164.9092 C.ar    1  UNL1        0.1364
     13 C         138.0267  139.6818  165.5034 C.ar    1  UNL1        0.0425
     14 C         138.9713  139.2165  166.5717 C.ar    1  UNL1        0.0336
     15 C         140.0710  140.1198  167.0457 C.ar    1  UNL1        0.1465
     16 F         141.0157  139.6544  168.1141 F       1  UNL1       -0.2036
     17 C         140.2262  141.4882  166.4515 C.ar    1  UNL1        0.0654
     18 BR        141.3259  142.3915  166.9256 Br      1  UNL1       -0.0465
     19 C         139.2816  141.9535  165.3832 C.ar    1  UNL1        0.0491
     20 N         139.6008  141.8184  159.7661 N.pl3   1  UNL1       -0.3127
     21 H         139.0096  142.4142  159.2516 H       1  UNL1        0.1484
     22 C         141.0565  142.1494  159.9118 C.3     1  UNL1        0.1077
     23 C         141.5075  143.5797  159.8780 C.3     1  UNL1        0.1181
     24 O         139.1898  146.4411  161.3160 O.2     1  UNL1       -0.1411
     25 S         140.3404  145.4793  161.3526 S.O2    1  UNL1        0.0990
     26 O         139.8421  145.0763  159.9963 O.2     1  UNL1       -0.1411
     27 N         140.5981  146.0833  162.7012 N.3     1  UNL1       -0.1677
     28 C         141.8038  145.4107  163.2876 C.3     1  UNL1        0.1117
     29 C         142.2911  144.3910  162.3014 C.3     1  UNL1        0.1158
     30 N         141.3867  144.4333  161.1054 N.3     1  UNL1       -0.1424
     31 H         139.7906  145.9357  163.3066 H       1  UNL1        0.1499
@<TRIPOS>BOND
     1    24    25    2
     2    25    26    2
     3    25    27    1
     4    27    28    1
     5    28    29    1
     6    29    30    1
     7    30    23    1
     8    23    22    1
     9    22    20    1
    10    20     1    1
    11     1     2   ar
    12     2     3   ar
    13     3     4   ar
    14     4     5   ar
    15     5     6    1
    16     6     7    2
    17     7     8    1
    18     6    10    1
    19    10    12    1
    20    12    13   ar
    21    13    14   ar
    22    14    15   ar
    23    15    16    1
    24    15    17   ar
    25    17    18    1
    26    17    19   ar
    27    30    25    1
    28     5     1   ar
    29    19    12   ar
    30    27    31    1
    31    20    21    1
    32     8     9    1
    33    10    11    1
@<TRIPOS>MOLECULE
*****
 31 33 0 0 0
SMALL
GASTEIGER

@<TRIPOS>ATOM
      1 C         140.3106  138.6823  162.2137 C.ar    1  UNL1        0.1986
      2 N         141.2540  137.5179  162.2794 N.ar    1  UNL1       -0.0331
      3 O         141.0097  136.7959  163.5713 O.2     1  UNL1       -0.2400
      4 N         139.9154  137.5140  164.3039 N.ar    1  UNL1       -0.0391
      5 C         139.4833  138.6799  163.4649 C.ar    1  UNL1        0.2426
      6 C         138.4121  139.6696  163.8155 C.2     1  UNL1        0.3943
      7 N         137.6760  140.3948  162.7281 N.2     1  UNL1        0.1539
      8 O         136.6048  141.3846  163.0787 O.2     1  UNL1       -0.3110
      9 H         136.1450  141.8376  162.3995 H       1  UNL1        0.3605
     10 N         138.0769  139.9342  165.2534 N.pl3   1  UNL1       -0.1942
     11 H         137.2096  139.6443  165.6181 H       1  UNL1        0.2987
     12 C         139.0633  140.6403  166.1358 C.ar    1  UNL1        0.1364
     13 C         139.6160  141.9732  165.7262 C.ar    1  UNL1        0.0425
     14 C         140.6023  142.6793  166.6086 C.ar    1  UNL1        0.0336
     15 C         141.0358  142.0526  167.9006 C.ar    1  UNL1        0.1465
     16 F         142.0221  142.7588  168.7830 F       1  UNL1       -0.2036
     17 C         140.4830  140.7197  168.3102 C.ar    1  UNL1        0.0654
     18 BR        140.9165  140.0929  169.6022 Br      1  UNL1       -0.0465
     19 C         139.4968  140.0136  167.4278 C.ar    1  UNL1        0.0491
     20 N         140.2119  139.6749  161.0933 N.pl3   1  UNL1       -0.3127
     21 H         139.6797  139.4622  160.2928 H       1  UNL1        0.1484
     22 C         140.9239  140.9913  161.1926 C.3     1  UNL1        0.1077
     23 C         140.1741  142.2691  160.9585 C.3     1  UNL1        0.1181
     24 O         137.7199  144.8599  162.6591 O.2     1  UNL1       -0.1411
     25 S         139.0448  144.1956  162.4278 S.O2    1  UNL1        0.0990
     26 O         138.2808  143.3725  161.4332 O.2     1  UNL1       -0.1411
     27 N         139.5318  145.1574  163.4706 N.3     1  UNL1       -0.1677
     28 C         140.9978  144.9156  163.6759 C.3     1  UNL1        0.1117
     29 C         141.4169  143.8042  162.7598 C.3     1  UNL1        0.1158
     30 N         140.2098  143.3591  161.9884 N.3     1  UNL1       -0.1424
     31 H         139.0298  145.0033  164.3451 H       1  UNL1        0.1499
@<TRIPOS>BOND
     1    24    25    2
     2    25    26    2
     3    25    27    1
     4    27    28    1
     5    28    29    1
     6    29    30    1
     7    30    23    1
     8    23    22    1
     9    22    20    1
    10    20     1    1
    11     1     2   ar
    12     2     3   ar
    13     3     4   ar
    14     4     5   ar
    15     5     6    1
    16     6     7    2
    17     7     8    1
    18     6    10    1
    19    10    12    1
    20    12    13   ar
    21    13    14   ar
    22    14    15   ar
    23    15    16    1
    24    15    17   ar
    25    17    18    1
    26    17    19   ar
    27    30    25    1
    28     5     1   ar
    29    19    12   ar
    30    27    31    1
    31    20    21    1
    32     8     9    1
    33    10    11    1
@<TRIPOS>MOLECULE
*****
 31 33 0 0 0
SMALL
GASTEIGER

@<TRIPOS>ATOM
      1 C         140.8976  145.1923  161.8165 C.ar    1  UNL1        0.1986
      2 N         141.4158  145.2091  160.4090 N.ar    1  UNL1       -0.0331
      3 O         140.4142  144.5106  159.5379 O.2     1  UNL1       -0.2400
      4 N         139.2770  144.0620  160.4071 N.ar    1  UNL1       -0.0391
      5 C         139.5757  144.4833  161.8154 C.ar    1  UNL1        0.2426
      6 C         138.7054  144.2386  163.0123 C.2     1  UNL1        0.3943
      7 N         138.9573  144.9861  164.2882 N.2     1  UNL1        0.1539
      8 O         138.0870  144.7415  165.4851 O.2     1  UNL1       -0.3110
      9 H         138.2443  145.2084  166.2821 H       1  UNL1        0.3605
     10 N         137.5832  143.2464  162.9334 N.pl3   1  UNL1       -0.1942
     11 H         136.6657  143.5543  162.7529 H       1  UNL1        0.2987
     12 C         137.8590  141.7850  163.1296 C.ar    1  UNL1        0.1364
     13 C         137.9378  140.8708  161.9431 C.ar    1  UNL1        0.0425
     14 C         138.2135  139.4095  162.1393 C.ar    1  UNL1        0.0336
     15 C         138.4105  138.8625  163.5221 C.ar    1  UNL1        0.1465
     16 F         138.6862  137.4011  163.7183 F       1  UNL1       -0.2036
     17 C         138.3317  139.7767  164.7086 C.ar    1  UNL1        0.0654
     18 BR        138.5286  139.2297  166.0913 Br      1  UNL1       -0.0465
     19 C         138.0559  141.2380  164.5124 C.ar    1  UNL1        0.0491
     20 N         141.5813  145.7810  163.0148 N.pl3   1  UNL1       -0.3127
     21 H         141.3148  146.6687  163.3469 H       1  UNL1        0.1484
     22 C         142.6709  145.0174  163.7072 C.3     1  UNL1        0.1077
     23 C         143.9191  144.6491  162.9615 C.3     1  UNL1        0.1181
     24 O         144.7308  141.5668  160.6230 O.2     1  UNL1       -0.1411
     25 S         144.6610  142.2965  161.9318 S.O2    1  UNL1        0.0990
     26 O         144.0961  143.4103  161.1009 O.2     1  UNL1       -0.1411
     27 N         145.2405  141.0301  162.4891 N.3     1  UNL1       -0.1677
     28 C         145.4107  141.2100  163.9685 C.3     1  UNL1        0.1117
     29 C         144.9365  142.5875  164.3255 C.3     1  UNL1        0.1158
     30 N         144.4731  143.2591  163.0667 N.3     1  UNL1       -0.1424
     31 H         146.1453  140.8438  162.0566 H       1  UNL1        0.1499
@<TRIPOS>BOND
     1    24    25    2
     2    25    26    2
     3    25    27    1
     4    27    28    1
     5    28    29    1
     6    29    30    1
     7    30    23    1
     8    23    22    1
     9    22    20    1
    10    20     1    1
    11     1     2   ar
    12     2     3   ar
    13     3     4   ar
    14     4     5   ar
    15     5     6    1
    16     6     7    2
    17     7     8    1
    18     6    10    1
    19    10    12    1
    20    12    13   ar
    21    13    14   ar
    22    14    15   ar
    23    15    16    1
    24    15    17   ar
    25    17    18    1
    26    17    19   ar
    27    30    25    1
    28     5     1   ar
    29    19    12   ar
    30    27    31    1
    31    20    21    1
    32     8     9    1
    33    10    11    1
@<TRIPOS>MOLECULE
*****
 31 33 0 0 0
SMALL
GASTEIGER

@<TRIPOS>ATOM
      1 C         138.8080  138.5423  162.8030 C.ar    1  UNL1        0.1986
      2 N         139.6968  137.8034  161.8469 N.ar    1  UNL1       -0.0331
      3 O         140.7299  137.0683  162.6483 O.2     1  UNL1       -0.2400
      4 N         140.4796  137.3528  164.0996 N.ar    1  UNL1       -0.0391
      5 C         139.2918  138.2639  164.1953 C.ar    1  UNL1        0.2426
      6 C         138.6929  138.8020  165.4609 C.2     1  UNL1        0.3943
      7 N         137.9311  137.8905  166.3769 N.2     1  UNL1        0.1539
      8 O         137.3323  138.4286  167.6425 O.2     1  UNL1       -0.3110
      9 H         136.8564  137.8592  168.2147 H       1  UNL1        0.3605
     10 N         138.8559  140.2515  165.8106 N.pl3   1  UNL1       -0.1942
     11 H         138.1744  140.9048  165.5315 H       1  UNL1        0.2987
     12 C         140.0572  140.7056  166.5857 C.ar    1  UNL1        0.1364
     13 C         140.8142  141.9249  166.1495 C.ar    1  UNL1        0.0425
     14 C         142.0155  142.3789  166.9246 C.ar    1  UNL1        0.0336
     15 C         142.4598  141.6137  168.1358 C.ar    1  UNL1        0.1465
     16 F         143.6611  142.0678  168.9108 F       1  UNL1       -0.2036
     17 C         141.7028  140.3944  168.5719 C.ar    1  UNL1        0.0654
     18 BR        142.1471  139.6291  169.7831 Br      1  UNL1       -0.0465
     19 C         140.5015  139.9403  167.7969 C.ar    1  UNL1        0.0491
     20 N         137.6404  139.4078  162.4319 N.pl3   1  UNL1       -0.3127
     21 H         136.7258  139.0461  162.4762 H       1  UNL1        0.1484
     22 C         137.8661  140.8243  161.9934 C.3     1  UNL1        0.1077
     23 C         137.4996  141.9588  162.9037 C.3     1  UNL1        0.1181
     24 O         138.5691  144.7782  165.4600 O.2     1  UNL1       -0.1411
     25 S         138.5546  144.0878  164.1284 S.O2    1  UNL1        0.0990
     26 O         137.6384  143.1198  164.8169 O.2     1  UNL1       -0.1411
     27 N         139.4737  145.2000  163.7183 N.3     1  UNL1       -0.1677
     28 C         139.8357  144.9946  162.2772 C.3     1  UNL1        0.1117
     29 C         139.1403  143.7555  161.7967 C.3     1  UNL1        0.1158
     30 N         138.3484  143.1950  162.9408 N.3     1  UNL1       -0.1424
     31 H         140.3163  145.1823  164.2928 H       1  UNL1        0.1499
@<TRIPOS>BOND
     1    24    25    2
     2    25    26    2
     3    25    27    1
     4    27    28    1
     5    28    29    1
     6    29    30    1
     7    30    23    1
     8    23    22    1
     9    22    20    1
    10    20     1    1
    11     1     2   ar
    12     2     3   ar
    13     3     4   ar
    14     4     5   ar
    15     5     6    1
    16     6     7    2
    17     7     8    1
    18     6    10    1
    19    10    12    1
    20    12    13   ar
    21    13    14   ar
    22    14    15   ar
    23    15    16    1
    24    15    17   ar
    25    17    18    1
    26    17    19   ar
    27    30    25    1
    28     5     1   ar
    29    19    12   ar
    30    27    31    1
    31    20    21    1
    32     8     9    1
    33    10    11    1
@<TRIPOS>MOLECULE
*****
 31 33 0 0 0
SMALL
GASTEIGER

@<TRIPOS>ATOM
      1 C         138.7255  139.3737  164.9885 C.ar    1  UNL1        0.1986
      2 N         138.9098  137.8981  164.7920 N.ar    1  UNL1       -0.0331
      3 O         138.9720  137.6311  163.3173 O.2     1  UNL1       -0.2400
      4 N         138.8261  138.9416  162.6024 N.ar    1  UNL1       -0.0391
      5 C         138.6738  140.0187  163.6352 C.ar    1  UNL1        0.2426
      6 C         138.5002  141.4835  163.3627 C.2     1  UNL1        0.3943
      7 N         137.5476  141.9405  162.2979 N.2     1  UNL1        0.1539
      8 O         137.3740  143.4053  162.0253 O.2     1  UNL1       -0.3110
      9 H         136.7790  143.6908  161.3602 H       1  UNL1        0.3605
     10 N         139.2793  142.4912  164.1548 N.pl3   1  UNL1       -0.1942
     11 H         138.8932  142.8789  164.9733 H       1  UNL1        0.2987
     12 C         140.6465  142.9083  163.6999 C.ar    1  UNL1        0.1364
     13 C         140.8739  143.3009  162.2702 C.ar    1  UNL1        0.0425
     14 C         142.2410  143.7180  161.8154 C.ar    1  UNL1        0.0336
     15 C         143.3808  143.7424  162.7903 C.ar    1  UNL1        0.1465
     16 F         144.7480  144.1595  162.3354 F       1  UNL1       -0.2036
     17 C         143.1534  143.3497  164.2200 C.ar    1  UNL1        0.0654
     18 BR        144.2931  143.3741  165.1948 Br      1  UNL1       -0.0465
     19 C         141.7862  142.9327  164.6748 C.ar    1  UNL1        0.0491
     20 N         138.6127  140.0803  166.3068 N.pl3   1  UNL1       -0.3127
     21 H         137.7736  140.5328  166.5526 H       1  UNL1        0.1484
     22 C         139.7783  140.0975  167.2507 C.3     1  UNL1        0.1077
     23 C         139.5441  140.1693  168.7306 C.3     1  UNL1        0.1181
     24 O         140.5441  142.0060  172.0852 O.2     1  UNL1       -0.1411
     25 S         140.7724  141.0916  170.9182 S.O2    1  UNL1        0.0990
     26 O         139.3790  141.4922  170.5334 O.2     1  UNL1       -0.1411
     27 N         142.1180  140.8822  171.5470 N.3     1  UNL1       -0.1677
     28 C         142.8866  139.9221  170.6882 C.3     1  UNL1        0.1117
     29 C         142.0160  139.5383  169.5286 C.3     1  UNL1        0.1158
     30 N         140.7092  140.2610  169.6708 N.3     1  UNL1       -0.1424
     31 H         142.0058  140.4950  172.4840 H       1  UNL1        0.1499
@<TRIPOS>BOND
     1    24    25    2
     2    25    26    2
     3    25    27    1
     4    27    28    1
     5    28    29    1
     6    29    30    1
     7    30    23    1
     8    23    22    1
     9    22    20    1
    10    20     1    1
    11     1     2   ar
    12     2     3   ar
    13     3     4   ar
    14     4     5   ar
    15     5     6    1
    16     6     7    2
    17     7     8    1
    18     6    10    1
    19    10    12    1
    20    12    13   ar
    21    13    14   ar
    22    14    15   ar
    23    15    16    1
    24    15    17   ar
    25    17    18    1
    26    17    19   ar
    27    30    25    1
    28     5     1   ar
    29    19    12   ar
    30    27    31    1
    31    20    21    1
    32     8     9    1
    33    10    11    1
@<TRIPOS>MOLECULE
*****
 31 33 0 0 0
SMALL
GASTEIGER

@<TRIPOS>ATOM
      1 C         138.5430  142.4623  161.4939 C.ar    1  UNL1        0.1986
      2 N         137.5927  141.3224  161.7116 N.ar    1  UNL1       -0.0331
      3 O         136.8337  141.5871  162.9780 O.2     1  UNL1       -0.2400
      4 N         137.3150  142.8906  163.5430 N.ar    1  UNL1       -0.0391
      5 C         138.3714  143.4316  162.6258 C.ar    1  UNL1        0.2426
      6 C         139.1240  144.7162  162.8084 C.2     1  UNL1        0.3943
      7 N         139.1521  145.7323  161.7052 N.2     1  UNL1        0.1539
      8 O         139.9047  147.0169  161.8878 O.2     1  UNL1       -0.3110
      9 H         139.9222  147.6516  161.1988 H       1  UNL1        0.3605
     10 N         139.8486  144.9847  164.0940 N.pl3   1  UNL1       -0.1942
     11 H         139.4120  145.5067  164.8054 H       1  UNL1        0.2987
     12 C         141.2385  144.4578  164.2958 C.ar    1  UNL1        0.1364
     13 C         142.4195  145.2661  163.8467 C.ar    1  UNL1        0.0425
     14 C         143.8093  144.7392  164.0485 C.ar    1  UNL1        0.0336
     15 C         144.0181  143.4040  164.6993 C.ar    1  UNL1        0.1465
     16 F         145.4080  142.8772  164.9011 F       1  UNL1       -0.2036
     17 C         142.8371  142.5957  165.1484 C.ar    1  UNL1        0.0654
     18 BR        143.0459  141.2605  165.7993 Br      1  UNL1       -0.0465
     19 C         141.4473  143.1226  164.9466 C.ar    1  UNL1        0.0491
     20 N         139.4974  142.6075  160.3459 N.pl3   1  UNL1       -0.3127
     21 H         139.2724  143.1973  159.5903 H       1  UNL1        0.1484
     22 C         140.7945  141.8543  160.3489 C.3     1  UNL1        0.1077
     23 C         141.1772  141.0245  161.5384 C.3     1  UNL1        0.1181
     24 O         140.5545  137.2580  162.5648 O.2     1  UNL1       -0.1411
     25 S         141.2927  138.3775  161.8924 S.O2    1  UNL1        0.0990
     26 O         140.2066  139.2330  162.4744 O.2     1  UNL1       -0.1411
     27 N         142.2244  137.2880  161.4510 N.3     1  UNL1       -0.1677
     28 C         143.3113  137.9130  160.6276 C.3     1  UNL1        0.1117
     29 C         143.0513  139.3887  160.5601 C.3     1  UNL1        0.1158
     30 N         141.8037  139.6759  161.3418 N.3     1  UNL1       -0.1424
     31 H         141.7160  136.6036  160.8911 H       1  UNL1        0.1499
@<TRIPOS>BOND
     1    24    25    2
     2    25    26    2
     3    25    27    1
     4    27    28    1
     5    28    29    1
     6    29    30    1
     7    30    23    1
     8    23    22    1
     9    22    20    1
    10    20     1    1
    11     1     2   ar
    12     2     3   ar
    13     3     4   ar
    14     4     5   ar
    15     5     6    1
    16     6     7    2
    17     7     8    1
    18     6    10    1
    19    10    12    1
    20    12    13   ar
    21    13    14   ar
    22    14    15   ar
    23    15    16    1
    24    15    17   ar
    25    17    18    1
    26    17    19   ar
    27    30    25    1
    28     5     1   ar
    29    19    12   ar
    30    27    31    1
    31    20    21    1
    32     8     9    1
    33    10    11    1
