@<TRIPOS>MOLECULE
*****
 39 43 0 0 0
SMALL
GASTEIGER

@<TRIPOS>ATOM
      1 N         143.0609  137.2136  160.1303 N.am    1  UNL1       -0.3018
      2 C         142.7105  138.0052  158.9053 C.2     1  UNL1        0.2425
      3 O         142.2333  139.4211  159.0384 O.2     1  UNL1       -0.2733
      4 H         143.3740  136.2843  160.0429 H       1  UNL1        0.1495
      5 N         142.7551  138.7207  163.4089 N.3     1  UNL1       -0.2711
      6 C         143.8119  138.7018  162.3446 C.3     1  UNL1        0.0933
      7 C         142.9342  137.8379  161.4883 C.3     1  UNL1        0.1035
      8 C         141.8774  137.8567  162.5526 C.3     1  UNL1        0.0933
      9 C         142.3751  140.5936  167.4829 C.3     1  UNL1        0.0255
     10 C         142.9675  139.2229  167.3398 C.3     1  UNL1        0.0058
     11 C         143.0941  138.5987  165.9818 C.3     1  UNL1        0.0163
     12 C         142.6284  139.3450  164.7669 C.3     1  UNL1        0.0576
     13 C         142.0360  140.7156  164.9099 C.3     1  UNL1        0.0163
     14 C         141.9093  141.3399  166.2680 C.3     1  UNL1        0.0058
     15 C         141.1870  140.7432  169.7886 C.ar    1  UNL1        0.1538
     16 C         141.0603  141.3675  171.1466 C.ar    1  UNL1        0.1353
     17 N         141.9951  142.4664  171.5570 N.ar    1  UNL1       -0.2392
     18 C         143.0566  142.9411  170.6094 C.ar    1  UNL1        0.0988
     19 C         143.1833  142.3168  169.2514 C.ar    1  UNL1        0.0194
     20 C         142.2484  141.2178  168.8409 C.ar    1  UNL1        0.0146
     21 C         139.0870  139.9460  168.4829 C.3     1  UNL1        0.2525
     22 O         140.2521  139.6442  169.3782 O.3     1  UNL1       -0.4702
     23 C         142.8371  137.3810  157.5473 C.3     1  UNL1        0.1747
     24 N         142.8344  135.8878  157.4049 N.pl3   1  UNL1       -0.3106
     25 H         142.9695  135.3177  158.1961 H       1  UNL1        0.1486
     26 C         142.6258  135.2633  156.0571 C.ar    1  UNL1        0.1320
     27 N         141.9867  136.0545  154.9547 N.ar    1  UNL1       -0.2092
     28 C         141.7781  135.4299  153.6070 C.ar    1  UNL1        0.2000
     29 N         142.2087  134.0141  153.3617 N.ar    1  UNL1       -0.2239
     30 C         142.8478  133.2229  154.4641 C.ar    1  UNL1        0.0857
     31 C         143.2784  131.8071  154.2189 C.ar    1  UNL1        0.0192
     32 C         143.9176  131.0159  155.3213 C.ar    1  UNL1        0.0054
     33 C         144.1261  131.6405  156.6691 C.ar    1  UNL1        0.0716
     34 C         143.6956  133.0562  156.9144 C.ar    1  UNL1        0.0081
     35 C         143.0564  133.8475  155.8119 C.ar    1  UNL1        0.0491
     36 C         144.7653  130.8492  157.7715 C.3     1  UNL1        0.4186
     37 F         145.4044  130.0579  158.8740 F       1  UNL1       -0.1659
     38 F         145.6325  132.0247  158.1124 F       1  UNL1       -0.1659
     39 F         143.8981  129.6738  157.4307 F       1  UNL1       -0.1659
@<TRIPOS>BOND
     1    21    22    1
     2    22    15    1
     3    15    16   ar
     4    16    17   ar
     5    17    18   ar
     6    18    19   ar
     7    19    20   ar
     8     9    20    1
     9     9    10    1
    10    10    11    1
    11    11    12    1
    12    12     5    1
    13     5     6    1
    14     6     7    1
    15     7     1    1
    16     1     2   am
    17     2     3    2
    18     2    23    1
    19    23    24    1
    20    24    26    1
    21    26    27   ar
    22    27    28   ar
    23    28    29   ar
    24    29    30   ar
    25    30    31   ar
    26    31    32   ar
    27    32    33   ar
    28    33    36    1
    29    36    37    1
    30    36    38    1
    31    36    39    1
    32    33    34   ar
    33    34    35   ar
    34     7     8    1
    35    12    13    1
    36    13    14    1
    37    20    15   ar
    38    14     9    1
    39     8     5    1
    40    35    26   ar
    41    35    30   ar
    42     1     4    1
    43    24    25    1
@<TRIPOS>MOLECULE
*****
 39 43 0 0 0
SMALL
GASTEIGER

@<TRIPOS>ATOM
      1 N         143.9621  139.5657  159.7432 N.am    1  UNL1       -0.3018
      2 C         142.9606  139.6939  158.6339 C.2     1  UNL1        0.2425
      3 O         141.5599  140.1380  158.9356 O.2     1  UNL1       -0.2733
      4 H         144.8814  139.2743  159.5452 H       1  UNL1        0.1495
      5 N         142.9984  140.3284  163.1497 N.3     1  UNL1       -0.2711
      6 C         144.0203  139.4350  162.5112 C.3     1  UNL1        0.0933
      7 C         143.5629  139.8817  161.1543 C.3     1  UNL1        0.1035
      8 C         142.5410  140.7749  161.7927 C.3     1  UNL1        0.0933
      9 C         141.8009  141.2759  167.3827 C.3     1  UNL1        0.0255
     10 C         142.9855  141.9602  166.7673 C.3     1  UNL1        0.0058
     11 C         143.3847  141.6443  165.3563 C.3     1  UNL1        0.0163
     12 C         142.5993  140.6442  164.5607 C.3     1  UNL1        0.0576
     13 C         141.4147  139.9600  165.1760 C.3     1  UNL1        0.0163
     14 C         141.0155  140.2759  166.5871 C.3     1  UNL1        0.0058
     15 C         142.0191  140.8382  169.9343 C.ar    1  UNL1        0.1538
     16 C         141.6199  141.1542  171.3453 C.ar    1  UNL1        0.1353
     17 N         140.6035  142.2236  171.6156 N.ar    1  UNL1       -0.2392
     18 C         139.9862  142.9772  170.4750 C.ar    1  UNL1        0.0988
     19 C         140.3853  142.6613  169.0640 C.ar    1  UNL1        0.0194
     20 C         141.4018  141.5918  168.7936 C.ar    1  UNL1        0.0146
     21 C         142.8197  138.3796  170.1869 C.3     1  UNL1        0.2525
     22 O         143.0355  139.7688  169.6640 O.3     1  UNL1       -0.4702
     23 C         143.3597  139.3780  157.2229 C.3     1  UNL1        0.1747
     24 N         143.5805  137.9539  156.8069 N.pl3   1  UNL1       -0.3106
     25 H         144.4360  137.5097  157.0067 H       1  UNL1        0.1486
     26 C         142.4976  137.2065  156.0865 C.ar    1  UNL1        0.1320
     27 N         141.4037  137.9590  155.3885 N.ar    1  UNL1       -0.2092
     28 C         140.3209  137.2116  154.6681 C.ar    1  UNL1        0.2000
     29 N         140.3320  135.7118  154.6457 N.ar    1  UNL1       -0.2239
     30 C         141.4259  134.9594  155.3436 C.ar    1  UNL1        0.0857
     31 C         141.4370  133.4596  155.3212 C.ar    1  UNL1        0.0192
     32 C         142.5309  132.7072  156.0191 C.ar    1  UNL1        0.0054
     33 C         143.6138  133.4545  156.7396 C.ar    1  UNL1        0.0716
     34 C         143.6027  134.9543  156.7620 C.ar    1  UNL1        0.0081
     35 C         142.5087  135.7067  156.0640 C.ar    1  UNL1        0.0491
     36 C         144.7077  132.7021  157.4375 C.3     1  UNL1        0.4186
     37 F         145.8017  131.9495  158.1354 F       1  UNL1       -0.1659
     38 F         144.5471  133.5840  158.6401 F       1  UNL1       -0.1659
     39 F         144.8683  131.8201  156.2349 F       1  UNL1       -0.1659
@<TRIPOS>BOND
     1    21    22    1
     2    22    15    1
     3    15    16   ar
     4    16    17   ar
     5    17    18   ar
     6    18    19   ar
     7    19    20   ar
     8     9    20    1
     9     9    10    1
    10    10    11    1
    11    11    12    1
    12    12     5    1
    13     5     6    1
    14     6     7    1
    15     7     1    1
    16     1     2   am
    17     2     3    2
    18     2    23    1
    19    23    24    1
    20    24    26    1
    21    26    27   ar
    22    27    28   ar
    23    28    29   ar
    24    29    30   ar
    25    30    31   ar
    26    31    32   ar
    27    32    33   ar
    28    33    36    1
    29    36    37    1
    30    36    38    1
    31    36    39    1
    32    33    34   ar
    33    34    35   ar
    34     7     8    1
    35    12    13    1
    36    13    14    1
    37    20    15   ar
    38    14     9    1
    39     8     5    1
    40    35    26   ar
    41    35    30   ar
    42     1     4    1
    43    24    25    1
@<TRIPOS>MOLECULE
*****
 39 43 0 0 0
SMALL
GASTEIGER

@<TRIPOS>ATOM
      1 N         143.6046  139.3001  157.8672 N.am    1  UNL1       -0.3018
      2 C         143.2694  138.0708  157.0757 C.2     1  UNL1        0.2425
      3 O         142.6103  136.9027  157.7475 O.2     1  UNL1       -0.2733
      4 H         144.0372  140.0667  157.4263 H       1  UNL1        0.1495
      5 N         142.8229  139.4478  161.4001 N.3     1  UNL1       -0.2711
      6 C         144.0559  139.1539  160.5980 C.3     1  UNL1        0.0933
      7 C         143.2808  139.3613  159.3306 C.3     1  UNL1        0.1035
      8 C         142.0479  139.6552  160.1327 C.3     1  UNL1        0.0933
      9 C         141.8515  139.6313  165.7902 C.3     1  UNL1        0.0255
     10 C         142.2287  140.8818  165.0525 C.3     1  UNL1        0.0058
     11 C         142.5525  140.8206  163.5892 C.3     1  UNL1        0.0163
     12 C         142.4991  139.5090  162.8634 C.3     1  UNL1        0.0576
     13 C         142.1220  138.2585  163.6010 C.3     1  UNL1        0.0163
     14 C         141.7982  138.3196  165.0644 C.3     1  UNL1        0.0058
     15 C         140.1313  140.0097  167.7001 C.ar    1  UNL1        0.1538
     16 C         139.8076  140.0709  169.1635 C.ar    1  UNL1        0.1353
     17 N         140.8802  139.8148  170.1803 N.ar    1  UNL1       -0.2392
     18 C         142.2766  139.4976  169.7337 C.ar    1  UNL1        0.0988
     19 C         142.6004  139.4364  168.2704 C.ar    1  UNL1        0.0194
     20 C         141.5277  139.6925  167.2535 C.ar    1  UNL1        0.0146
     21 C         138.2227  139.1298  166.1727 C.3     1  UNL1        0.2525
     22 O         139.0587  140.2657  166.6833 O.3     1  UNL1       -0.4702
     23 C         143.5932  138.0096  155.6124 C.3     1  UNL1        0.1747
     24 N         144.0125  136.7104  154.9907 N.pl3   1  UNL1       -0.3106
     25 H         144.9685  136.5064  154.8741 H       1  UNL1        0.1486
     26 C         142.9750  135.7221  154.5467 C.ar    1  UNL1        0.1320
     27 N         141.9419  136.1225  153.5356 N.ar    1  UNL1       -0.2092
     28 C         140.9045  135.1342  153.0917 C.ar    1  UNL1        0.2000
     29 N         140.9003  133.7456  153.6588 N.ar    1  UNL1       -0.2239
     30 C         141.9334  133.3452  154.6699 C.ar    1  UNL1        0.0857
     31 C         141.9292  131.9566  155.2370 C.ar    1  UNL1        0.0192
     32 C         142.9623  131.5562  156.2481 C.ar    1  UNL1        0.0054
     33 C         143.9998  132.5445  156.6921 C.ar    1  UNL1        0.0716
     34 C         144.0040  133.9331  156.1249 C.ar    1  UNL1        0.0081
     35 C         142.9708  134.3335  155.1138 C.ar    1  UNL1        0.0491
     36 C         145.0329  132.1441  157.7031 C.3     1  UNL1        0.4186
     37 F         146.0661  131.7437  158.7142 F       1  UNL1       -0.1659
     38 F         144.8481  133.4538  158.4106 F       1  UNL1       -0.1659
     39 F         145.2177  130.8344  156.9957 F       1  UNL1       -0.1659
@<TRIPOS>BOND
     1    21    22    1
     2    22    15    1
     3    15    16   ar
     4    16    17   ar
     5    17    18   ar
     6    18    19   ar
     7    19    20   ar
     8     9    20    1
     9     9    10    1
    10    10    11    1
    11    11    12    1
    12    12     5    1
    13     5     6    1
    14     6     7    1
    15     7     1    1
    16     1     2   am
    17     2     3    2
    18     2    23    1
    19    23    24    1
    20    24    26    1
    21    26    27   ar
    22    27    28   ar
    23    28    29   ar
    24    29    30   ar
    25    30    31   ar
    26    31    32   ar
    27    32    33   ar
    28    33    36    1
    29    36    37    1
    30    36    38    1
    31    36    39    1
    32    33    34   ar
    33    34    35   ar
    34     7     8    1
    35    12    13    1
    36    13    14    1
    37    20    15   ar
    38    14     9    1
    39     8     5    1
    40    35    26   ar
    41    35    30   ar
    42     1     4    1
    43    24    25    1
@<TRIPOS>MOLECULE
*****
 39 43 0 0 0
SMALL
GASTEIGER

@<TRIPOS>ATOM
      1 N         144.0719  139.3365  159.2322 N.am    1  UNL1       -0.3018
      2 C         143.1979  139.6546  158.0553 C.2     1  UNL1        0.2425
      3 O         141.8125  140.1873  158.2722 O.2     1  UNL1       -0.2733
      4 H         144.9811  138.9869  159.0899 H       1  UNL1        0.1495
      5 N         142.8370  139.8545  162.5969 N.3     1  UNL1       -0.2711
      6 C         142.4826  138.9338  161.4670 C.3     1  UNL1        0.0933
      7 C         143.5604  139.5511  160.6259 C.3     1  UNL1        0.1035
      8 C         143.9148  140.4717  161.7558 C.3     1  UNL1        0.0933
      9 C         141.3026  140.4982  166.7779 C.3     1  UNL1        0.0255
     10 C         142.2356  139.3599  166.4883 C.3     1  UNL1        0.0058
     11 C         142.7471  139.1453  165.0947 C.3     1  UNL1        0.0163
     12 C         142.3256  140.0691  163.9906 C.3     1  UNL1        0.0576
     13 C         141.3926  141.2073  164.2801 C.3     1  UNL1        0.0163
     14 C         140.8811  141.4219  165.6738 C.3     1  UNL1        0.0058
     15 C         141.5966  141.5139  169.1511 C.ar    1  UNL1        0.1538
     16 C         141.0850  141.7284  170.5448 C.ar    1  UNL1        0.1353
     17 N         139.7681  141.1418  170.9590 N.ar    1  UNL1       -0.2392
     18 C         138.9626  140.3407  169.9794 C.ar    1  UNL1        0.0988
     19 C         139.4741  140.1262  168.5858 C.ar    1  UNL1        0.0194
     20 C         140.7911  140.7128  168.1716 C.ar    1  UNL1        0.0146
     21 C         143.9568  142.4057  169.7705 C.3     1  UNL1        0.2525
     22 O         142.9135  142.1004  168.7369 O.3     1  UNL1       -0.4702
     23 C         143.7093  139.4400  156.6616 C.3     1  UNL1        0.1747
     24 N         143.9223  138.0473  156.1470 N.pl3   1  UNL1       -0.3106
     25 H         144.8139  137.6334  156.2014 H       1  UNL1        0.1486
     26 C         142.7767  137.2851  155.5495 C.ar    1  UNL1        0.1320
     27 N         141.7229  138.0084  154.7646 N.ar    1  UNL1       -0.2092
     28 C         140.5774  137.2463  154.1671 C.ar    1  UNL1        0.2000
     29 N         140.4858  135.7609  154.3546 N.ar    1  UNL1       -0.2239
     30 C         141.5397  135.0376  155.1395 C.ar    1  UNL1        0.0857
     31 C         141.4481  133.5522  155.3270 C.ar    1  UNL1        0.0192
     32 C         142.5019  132.8289  156.1119 C.ar    1  UNL1        0.0054
     33 C         143.6475  133.5910  156.7094 C.ar    1  UNL1        0.0716
     34 C         143.7391  135.0764  156.5220 C.ar    1  UNL1        0.0081
     35 C         142.6851  135.7997  155.7370 C.ar    1  UNL1        0.0491
     36 C         144.7014  132.8677  157.4944 C.3     1  UNL1        0.4186
     37 F         145.7553  132.1444  158.2794 F       1  UNL1       -0.1659
     38 F         145.0246  132.0327  156.2910 F       1  UNL1       -0.1659
     39 F         144.3782  133.7028  158.6977 F       1  UNL1       -0.1659
@<TRIPOS>BOND
     1    21    22    1
     2    22    15    1
     3    15    16   ar
     4    16    17   ar
     5    17    18   ar
     6    18    19   ar
     7    19    20   ar
     8     9    20    1
     9     9    10    1
    10    10    11    1
    11    11    12    1
    12    12     5    1
    13     5     6    1
    14     6     7    1
    15     7     1    1
    16     1     2   am
    17     2     3    2
    18     2    23    1
    19    23    24    1
    20    24    26    1
    21    26    27   ar
    22    27    28   ar
    23    28    29   ar
    24    29    30   ar
    25    30    31   ar
    26    31    32   ar
    27    32    33   ar
    28    33    36    1
    29    36    37    1
    30    36    38    1
    31    36    39    1
    32    33    34   ar
    33    34    35   ar
    34     7     8    1
    35    12    13    1
    36    13    14    1
    37    20    15   ar
    38    14     9    1
    39     8     5    1
    40    35    26   ar
    41    35    30   ar
    42     1     4    1
    43    24    25    1
@<TRIPOS>MOLECULE
*****
 39 43 0 0 0
SMALL
GASTEIGER

@<TRIPOS>ATOM
      1 N         143.3072  136.8778  159.2201 N.am    1  UNL1       -0.3018
      2 C         142.5926  137.3661  157.9950 C.2     1  UNL1        0.2425
      3 O         141.6930  138.5635  158.0787 O.2     1  UNL1       -0.2733
      4 H         143.8976  136.0919  159.1652 H       1  UNL1        0.1495
      5 N         142.8608  138.5899  162.3798 N.3     1  UNL1       -0.2711
      6 C         144.0088  138.3882  161.4357 C.3     1  UNL1        0.0933
      7 C         143.1222  137.5870  160.5289 C.3     1  UNL1        0.1035
      8 C         141.9743  137.7886  161.4730 C.3     1  UNL1        0.0933
      9 C         142.3061  140.7174  166.3062 C.3     1  UNL1        0.0255
     10 C         142.6376  139.2545  166.2860 C.3     1  UNL1        0.0058
     11 C         142.8225  138.5454  164.9772 C.3     1  UNL1        0.0163
     12 C         142.6759  139.2990  163.6886 C.3     1  UNL1        0.0576
     13 C         142.3443  140.7617  163.7087 C.3     1  UNL1        0.0163
     14 C         142.1594  141.4709  165.0175 C.3     1  UNL1        0.0058
     15 C         140.7453  141.5975  168.1875 C.ar    1  UNL1        0.1538
     16 C         140.5605  142.3067  169.4963 C.ar    1  UNL1        0.1353
     17 N         141.7514  142.8448  170.2325 N.ar    1  UNL1       -0.2392
     18 C         143.1272  142.6738  169.6600 C.ar    1  UNL1        0.0988
     19 C         143.3121  141.9646  168.3512 C.ar    1  UNL1        0.0194
     20 C         142.1212  141.4265  167.6149 C.ar    1  UNL1        0.0146
     21 C         139.0951  139.6524  167.6946 C.3     1  UNL1        0.2525
     22 O         139.5544  141.0594  167.4513 O.3     1  UNL1       -0.4702
     23 C         142.7775  136.6570  156.6862 C.3     1  UNL1        0.1747
     24 N         142.1868  135.2934  156.4820 N.pl3   1  UNL1       -0.3106
     25 H         141.2868  135.1999  156.0939 H       1  UNL1        0.1486
     26 C         142.9673  134.0723  156.8690 C.ar    1  UNL1        0.1320
     27 N         144.1115  134.1875  157.8321 N.ar    1  UNL1       -0.2092
     28 C         144.8919  132.9664  158.2190 C.ar    1  UNL1        0.2000
     29 N         144.5283  131.6301  157.6428 N.ar    1  UNL1       -0.2239
     30 C         143.3842  131.5149  156.6797 C.ar    1  UNL1        0.0857
     31 C         143.0205  130.1786  156.1035 C.ar    1  UNL1        0.0192
     32 C         141.8764  130.0633  155.1404 C.ar    1  UNL1        0.0054
     33 C         141.0958  131.2844  154.7534 C.ar    1  UNL1        0.0716
     34 C         141.4595  132.6208  155.3296 C.ar    1  UNL1        0.0081
     35 C         142.6037  132.7360  156.2928 C.ar    1  UNL1        0.0491
     36 C         139.9517  131.1692  153.7903 C.3     1  UNL1        0.4186
     37 F         138.8075  131.0540  152.8271 F       1  UNL1       -0.1659
     38 F         139.1522  130.4380  154.8276 F       1  UNL1       -0.1659
     39 F         140.7513  131.9004  152.7530 F       1  UNL1       -0.1659
@<TRIPOS>BOND
     1    21    22    1
     2    22    15    1
     3    15    16   ar
     4    16    17   ar
     5    17    18   ar
     6    18    19   ar
     7    19    20   ar
     8     9    20    1
     9     9    10    1
    10    10    11    1
    11    11    12    1
    12    12     5    1
    13     5     6    1
    14     6     7    1
    15     7     1    1
    16     1     2   am
    17     2     3    2
    18     2    23    1
    19    23    24    1
    20    24    26    1
    21    26    27   ar
    22    27    28   ar
    23    28    29   ar
    24    29    30   ar
    25    30    31   ar
    26    31    32   ar
    27    32    33   ar
    28    33    36    1
    29    36    37    1
    30    36    38    1
    31    36    39    1
    32    33    34   ar
    33    34    35   ar
    34     7     8    1
    35    12    13    1
    36    13    14    1
    37    20    15   ar
    38    14     9    1
    39     8     5    1
    40    35    26   ar
    41    35    30   ar
    42     1     4    1
    43    24    25    1
@<TRIPOS>MOLECULE
*****
 39 43 0 0 0
SMALL
GASTEIGER

@<TRIPOS>ATOM
      1 N         139.5690  138.3311  159.7254 N.am    1  UNL1       -0.3018
      2 C         139.9500  139.2635  158.6138 C.2     1  UNL1        0.2425
      3 O         140.4774  140.6317  158.9301 O.2     1  UNL1       -0.2733
      4 H         139.2228  137.4332  159.5178 H       1  UNL1        0.1495
      5 N         139.9225  139.3832  163.1725 N.3     1  UNL1       -0.2711
      6 C         140.6508  138.4267  162.2754 C.3     1  UNL1        0.0933
      7 C         139.7154  138.7670  161.1532 C.3     1  UNL1        0.1035
      8 C         138.9872  139.7234  162.0502 C.3     1  UNL1        0.0933
      9 C         140.3620  140.6906  167.4559 C.3     1  UNL1        0.0255
     10 C         139.2583  139.7518  167.0676 C.3     1  UNL1        0.0058
     11 C         139.1118  139.3161  165.6399 C.3     1  UNL1        0.0163
     12 C         140.0690  139.8190  164.6002 C.3     1  UNL1        0.0576
     13 C         141.1726  140.7578  164.9884 C.3     1  UNL1        0.0163
     14 C         141.3191  141.1936  166.4162 C.3     1  UNL1        0.0058
     15 C         141.3222  140.3047  169.8389 C.ar    1  UNL1        0.1538
     16 C         141.4686  140.7405  171.2668 C.ar    1  UNL1        0.1353
     17 N         140.8013  141.9980  171.7393 N.ar    1  UNL1       -0.2392
     18 C         139.9876  142.8198  170.7840 C.ar    1  UNL1        0.0988
     19 C         139.8411  142.3840  169.3562 C.ar    1  UNL1        0.0194
     20 C         140.5084  141.1264  168.8836 C.ar    1  UNL1        0.0146
     21 C         142.9462  138.3222  170.2659 C.3     1  UNL1        0.2525
     22 O         141.9895  139.0471  169.3664 O.3     1  UNL1       -0.4702
     23 C         139.8036  138.8277  157.1860 C.3     1  UNL1        0.1747
     24 N         139.4674  137.4009  156.8680 N.pl3   1  UNL1       -0.3106
     25 H         139.1906  136.7883  157.5873 H       1  UNL1        0.1486
     26 C         139.5530  136.9074  155.4541 C.ar    1  UNL1        0.1320
     27 N         138.5552  137.3730  154.4355 N.ar    1  UNL1       -0.2092
     28 C         138.6408  136.8795  153.0216 C.ar    1  UNL1        0.2000
     29 N         139.7242  135.9203  152.6263 N.ar    1  UNL1       -0.2239
     30 C         140.7220  135.4547  153.6449 C.ar    1  UNL1        0.0857
     31 C         141.8055  134.4956  153.2496 C.ar    1  UNL1        0.0192
     32 C         142.8033  134.0300  154.2682 C.ar    1  UNL1        0.0054
     33 C         142.7177  134.5235  155.6821 C.ar    1  UNL1        0.0716
     34 C         141.6342  135.4826  156.0774 C.ar    1  UNL1        0.0081
     35 C         140.6364  135.9482  155.0588 C.ar    1  UNL1        0.0491
     36 C         143.7155  134.0579  156.7007 C.3     1  UNL1        0.4186
     37 F         144.7133  133.5922  157.7194 F       1  UNL1       -0.1659
     38 F         144.3089  133.1207  155.6910 F       1  UNL1       -0.1659
     39 F         143.1221  134.9950  157.7104 F       1  UNL1       -0.1659
@<TRIPOS>BOND
     1    21    22    1
     2    22    15    1
     3    15    16   ar
     4    16    17   ar
     5    17    18   ar
     6    18    19   ar
     7    19    20   ar
     8     9    20    1
     9     9    10    1
    10    10    11    1
    11    11    12    1
    12    12     5    1
    13     5     6    1
    14     6     7    1
    15     7     1    1
    16     1     2   am
    17     2     3    2
    18     2    23    1
    19    23    24    1
    20    24    26    1
    21    26    27   ar
    22    27    28   ar
    23    28    29   ar
    24    29    30   ar
    25    30    31   ar
    26    31    32   ar
    27    32    33   ar
    28    33    36    1
    29    36    37    1
    30    36    38    1
    31    36    39    1
    32    33    34   ar
    33    34    35   ar
    34     7     8    1
    35    12    13    1
    36    13    14    1
    37    20    15   ar
    38    14     9    1
    39     8     5    1
    40    35    26   ar
    41    35    30   ar
    42     1     4    1
    43    24    25    1
@<TRIPOS>MOLECULE
*****
 39 43 0 0 0
SMALL
GASTEIGER

@<TRIPOS>ATOM
      1 N         143.8106  139.4504  159.5795 N.am    1  UNL1       -0.3018
      2 C         144.1073  140.5611  158.6160 C.2     1  UNL1        0.2425
      3 O         144.0352  141.9885  159.0716 O.2     1  UNL1       -0.2733
      4 H         143.8579  138.5136  159.2804 H       1  UNL1        0.1495
      5 N         142.9203  140.2149  163.0054 N.3     1  UNL1       -0.2711
      6 C         142.2775  140.4349  161.6681 C.3     1  UNL1        0.0933
      7 C         143.4419  139.7670  160.9986 C.3     1  UNL1        0.1035
      8 C         144.0846  139.5470  162.3358 C.3     1  UNL1        0.0933
      9 C         141.8139  141.1648  167.2626 C.3     1  UNL1        0.0255
     10 C         142.8020  142.0269  166.5342 C.3     1  UNL1        0.0058
     11 C         143.1708  141.7103  165.1152 C.3     1  UNL1        0.0163
     12 C         142.5515  140.5315  164.4244 C.3     1  UNL1        0.0576
     13 C         141.5634  139.6694  165.1528 C.3     1  UNL1        0.0163
     14 C         141.1946  139.9861  166.5719 C.3     1  UNL1        0.0058
     15 C         142.0284  140.6773  169.8054 C.ar    1  UNL1        0.1538
     16 C         141.6596  140.9940  171.2245 C.ar    1  UNL1        0.1353
     17 N         140.7075  142.1148  171.5197 N.ar    1  UNL1       -0.2392
     18 C         140.1242  142.9190  170.3959 C.ar    1  UNL1        0.0988
     19 C         140.4929  142.6024  168.9768 C.ar    1  UNL1        0.0194
     20 C         141.4451  141.4815  168.6816 C.ar    1  UNL1        0.0146
     21 C         142.8756  138.2647  170.2655 C.3     1  UNL1        0.2525
     22 O         142.9805  139.5564  169.5103 O.3     1  UNL1       -0.4702
     23 C         144.4761  140.2445  157.1969 C.3     1  UNL1        0.1747
     24 N         145.6830  140.8825  156.5754 N.pl3   1  UNL1       -0.3106
     25 H         146.5830  140.5453  156.7889 H       1  UNL1        0.1486
     26 C         145.5187  142.0343  155.6286 C.ar    1  UNL1        0.1320
     27 N         144.1960  142.7335  155.5205 N.ar    1  UNL1       -0.2092
     28 C         144.0317  143.8853  154.5737 C.ar    1  UNL1        0.2000
     29 N         145.1901  144.3378  153.7350 N.ar    1  UNL1       -0.2239
     30 C         146.5127  143.6387  153.8431 C.ar    1  UNL1        0.0857
     31 C         147.6711  144.0912  153.0045 C.ar    1  UNL1        0.0192
     32 C         148.9937  143.3921  153.1126 C.ar    1  UNL1        0.0054
     33 C         149.1581  142.2402  154.0594 C.ar    1  UNL1        0.0716
     34 C         147.9997  141.7877  154.8981 C.ar    1  UNL1        0.0081
     35 C         146.6770  142.4869  154.7899 C.ar    1  UNL1        0.0491
     36 C         150.4807  141.5411  154.1675 C.3     1  UNL1        0.4186
     37 F         151.8034  140.8419  154.2757 F       1  UNL1       -0.1659
     38 F         150.2645  140.9233  152.8179 F       1  UNL1       -0.1659
     39 F         150.6970  142.1588  155.5172 F       1  UNL1       -0.1659
@<TRIPOS>BOND
     1    21    22    1
     2    22    15    1
     3    15    16   ar
     4    16    17   ar
     5    17    18   ar
     6    18    19   ar
     7    19    20   ar
     8     9    20    1
     9     9    10    1
    10    10    11    1
    11    11    12    1
    12    12     5    1
    13     5     6    1
    14     6     7    1
    15     7     1    1
    16     1     2   am
    17     2     3    2
    18     2    23    1
    19    23    24    1
    20    24    26    1
    21    26    27   ar
    22    27    28   ar
    23    28    29   ar
    24    29    30   ar
    25    30    31   ar
    26    31    32   ar
    27    32    33   ar
    28    33    36    1
    29    36    37    1
    30    36    38    1
    31    36    39    1
    32    33    34   ar
    33    34    35   ar
    34     7     8    1
    35    12    13    1
    36    13    14    1
    37    20    15   ar
    38    14     9    1
    39     8     5    1
    40    35    26   ar
    41    35    30   ar
    42     1     4    1
    43    24    25    1
@<TRIPOS>MOLECULE
*****
 39 43 0 0 0
SMALL
GASTEIGER

@<TRIPOS>ATOM
      1 N         140.6336  140.9050  162.7284 N.am    1  UNL1       -0.3018
      2 C         141.8376  141.5631  163.3344 C.2     1  UNL1        0.2425
      3 O         143.1755  141.4387  162.6675 O.2     1  UNL1       -0.2733
      4 H         139.7555  140.9866  163.1661 H       1  UNL1        0.1495
      5 N         140.9567  139.0161  159.6556 N.3     1  UNL1       -0.2711
      6 C         140.6588  138.6731  161.0852 C.3     1  UNL1        0.0933
      7 C         140.7674  140.1226  161.4556 C.3     1  UNL1        0.1035
      8 C         141.0652  140.4656  160.0261 C.3     1  UNL1        0.0933
      9 C         141.3581  136.6688  155.8374 C.3     1  UNL1        0.0255
     10 C         140.0402  137.2839  156.2046 C.3     1  UNL1        0.0058
     11 C         139.9064  138.0663  157.4774 C.3     1  UNL1        0.0163
     12 C         141.0905  138.2337  158.3829 C.3     1  UNL1        0.0576
     13 C         142.4083  137.6186  158.0157 C.3     1  UNL1        0.0163
     14 C         142.5422  136.8361  156.7430 C.3     1  UNL1        0.0058
     15 C         141.6550  134.3961  154.6140 C.ar    1  UNL1        0.1538
     16 C         141.7888  133.6137  153.3412 C.ar    1  UNL1        0.1353
     17 N         141.7596  134.3216  152.0191 N.ar    1  UNL1       -0.2392
     18 C         141.5965  135.8119  151.9697 C.ar    1  UNL1        0.0988
     19 C         141.4627  136.5943  153.2425 C.ar    1  UNL1        0.0194
     20 C         141.4920  135.8864  154.5647 C.ar    1  UNL1        0.0146
     21 C         142.8677  132.8458  156.3099 C.3     1  UNL1        0.2525
     22 O         141.6842  133.6882  155.9361 O.3     1  UNL1       -0.4702
     23 C         141.7039  142.3455  164.6071 C.3     1  UNL1        0.1747
     24 N         140.3534  142.5376  165.2310 N.pl3   1  UNL1       -0.3106
     25 H         139.8753  143.3907  165.1169 H       1  UNL1        0.1486
     26 C         139.7312  141.4300  166.0286 C.ar    1  UNL1        0.1320
     27 N         138.7692  140.4834  165.3741 N.ar    1  UNL1       -0.2092
     28 C         138.1471  139.3758  166.1718 C.ar    1  UNL1        0.2000
     29 N         138.4870  139.2148  167.6238 N.ar    1  UNL1       -0.2239
     30 C         139.4491  140.1615  168.2783 C.ar    1  UNL1        0.0857
     31 C         139.7890  140.0005  169.7304 C.ar    1  UNL1        0.0192
     32 C         140.7510  140.9471  170.3848 C.ar    1  UNL1        0.0054
     33 C         141.3732  142.0548  169.5872 C.ar    1  UNL1        0.0716
     34 C         141.0333  142.2157  168.1351 C.ar    1  UNL1        0.0081
     35 C         140.0712  141.2690  167.4807 C.ar    1  UNL1        0.0491
     36 C         142.3352  143.0014  170.2416 C.3     1  UNL1        0.4186
     37 F         143.2973  143.9481  170.8961 F       1  UNL1       -0.1659
     38 F         143.3327  141.8901  170.3827 F       1  UNL1       -0.1659
     39 F         141.3377  144.1127  170.1006 F       1  UNL1       -0.1659
@<TRIPOS>BOND
     1    21    22    1
     2    22    15    1
     3    15    16   ar
     4    16    17   ar
     5    17    18   ar
     6    18    19   ar
     7    19    20   ar
     8     9    20    1
     9     9    10    1
    10    10    11    1
    11    11    12    1
    12    12     5    1
    13     5     6    1
    14     6     7    1
    15     7     1    1
    16     1     2   am
    17     2     3    2
    18     2    23    1
    19    23    24    1
    20    24    26    1
    21    26    27   ar
    22    27    28   ar
    23    28    29   ar
    24    29    30   ar
    25    30    31   ar
    26    31    32   ar
    27    32    33   ar
    28    33    36    1
    29    36    37    1
    30    36    38    1
    31    36    39    1
    32    33    34   ar
    33    34    35   ar
    34     7     8    1
    35    12    13    1
    36    13    14    1
    37    20    15   ar
    38    14     9    1
    39     8     5    1
    40    35    26   ar
    41    35    30   ar
    42     1     4    1
    43    24    25    1
@<TRIPOS>MOLECULE
*****
 39 43 0 0 0
SMALL
GASTEIGER

@<TRIPOS>ATOM
      1 N         142.5047  141.8121  163.1011 N.am    1  UNL1       -0.3018
      2 C         142.4236  143.0153  163.9932 C.2     1  UNL1        0.2425
      3 O         141.4455  144.1108  163.6878 O.2     1  UNL1       -0.2733
      4 H         143.1467  141.0931  163.3015 H       1  UNL1        0.1495
      5 N         140.3393  141.5524  160.2101 N.3     1  UNL1       -0.2711
      6 C         141.7139  142.0985  160.4601 C.3     1  UNL1        0.0933
      7 C         141.6078  141.7045  161.9036 C.3     1  UNL1        0.1035
      8 C         140.2333  141.1585  161.6536 C.3     1  UNL1        0.0933
      9 C         137.6486  141.2296  156.6176 C.3     1  UNL1        0.0255
     10 C         137.6025  142.4550  157.4816 C.3     1  UNL1        0.0058
     11 C         138.4993  142.5626  158.6791 C.3     1  UNL1        0.0163
     12 C         139.4425  141.4448  159.0126 C.3     1  UNL1        0.0576
     13 C         139.4887  140.2195  158.1487 C.3     1  UNL1        0.0163
     14 C         138.5917  140.1119  156.9511 C.3     1  UNL1        0.0058
     15 C         135.3551  140.5969  155.5739 C.ar    1  UNL1        0.1538
     16 C         134.4582  140.4893  154.3763 C.ar    1  UNL1        0.1353
     17 N         134.9580  140.9069  153.0251 N.ar    1  UNL1       -0.2392
     18 C         136.3546  141.4322  152.8714 C.ar    1  UNL1        0.0988
     19 C         137.2515  141.5397  154.0688 C.ar    1  UNL1        0.0194
     20 C         136.7518  141.1221  155.4201 C.ar    1  UNL1        0.0146
     21 C         133.4654  139.6360  157.0757 C.3     1  UNL1        0.2525
     22 O         134.8554  140.1792  156.9251 O.3     1  UNL1       -0.4702
     23 C         143.3205  143.1229  165.1907 C.3     1  UNL1        0.1747
     24 N         143.5013  141.9443  166.1007 N.pl3   1  UNL1       -0.3106
     25 H         144.0558  141.1824  165.8152 H       1  UNL1        0.1486
     26 C         142.8373  141.9263  167.4457 C.ar    1  UNL1        0.1320
     27 N         143.4618  142.6523  168.6001 N.ar    1  UNL1       -0.2092
     28 C         142.7978  142.6344  169.9450 C.ar    1  UNL1        0.2000
     29 N         141.5093  141.8904  170.1354 N.ar    1  UNL1       -0.2239
     30 C         140.8848  141.1644  168.9809 C.ar    1  UNL1        0.0857
     31 C         139.5963  140.4205  169.1713 C.ar    1  UNL1        0.0192
     32 C         138.9718  139.6945  168.0169 C.ar    1  UNL1        0.0054
     33 C         139.6358  139.7124  166.6719 C.ar    1  UNL1        0.0716
     34 C         140.9243  140.4563  166.4815 C.ar    1  UNL1        0.0081
     35 C         141.5488  141.1824  167.6361 C.ar    1  UNL1        0.0491
     36 C         139.0113  138.9864  165.5174 C.3     1  UNL1        0.4186
     37 F         138.3867  138.2603  164.3629 F       1  UNL1       -0.1659
     38 F         137.7435  139.7633  165.7147 F       1  UNL1       -0.1659
     39 F         140.2791  138.2094  165.3202 F       1  UNL1       -0.1659
@<TRIPOS>BOND
     1    21    22    1
     2    22    15    1
     3    15    16   ar
     4    16    17   ar
     5    17    18   ar
     6    18    19   ar
     7    19    20   ar
     8     9    20    1
     9     9    10    1
    10    10    11    1
    11    11    12    1
    12    12     5    1
    13     5     6    1
    14     6     7    1
    15     7     1    1
    16     1     2   am
    17     2     3    2
    18     2    23    1
    19    23    24    1
    20    24    26    1
    21    26    27   ar
    22    27    28   ar
    23    28    29   ar
    24    29    30   ar
    25    30    31   ar
    26    31    32   ar
    27    32    33   ar
    28    33    36    1
    29    36    37    1
    30    36    38    1
    31    36    39    1
    32    33    34   ar
    33    34    35   ar
    34     7     8    1
    35    12    13    1
    36    13    14    1
    37    20    15   ar
    38    14     9    1
    39     8     5    1
    40    35    26   ar
    41    35    30   ar
    42     1     4    1
    43    24    25    1
