@<TRIPOS>MOLECULE
*****
 36 40 0 0 0
SMALL
GASTEIGER

@<TRIPOS>ATOM
      1 N         142.9625  142.7863  162.0570 N.ar    1  UNL1       -0.2340
      2 N         142.7076  141.8708  163.2176 N.ar    1  UNL1       -0.1679
      3 C         141.3522  142.1931  163.7732 C.ar    1  UNL1        0.1065
      4 C         140.7693  143.3078  162.9560 C.ar    1  UNL1        0.0860
      5 C         139.4609  144.0364  163.0408 C.ar    1  UNL1        0.1316
      6 N         138.4656  143.6698  164.1015 N.pl3   1  UNL1       -0.3425
      7 N         139.1477  145.1316  162.0648 N.ar    1  UNL1       -0.2093
      8 C         140.1429  145.4982  161.0041 C.ar    1  UNL1        0.2014
      9 N         141.4514  144.7695  160.9194 N.ar    1  UNL1       -0.2050
     10 C         141.7645  143.6744  161.8954 C.ar    1  UNL1        0.1653
     11 H         138.6712  142.9510  164.7420 H       1  UNL1        0.1437
     12 H         137.6069  144.1479  164.1571 H       1  UNL1        0.1437
     13 C         140.6949  141.5191  164.9410 C.ar    1  UNL1        0.0196
     14 C         139.9016  140.2632  164.7330 C.ar    1  UNL1        0.0031
     15 C         139.2443  139.5892  165.9008 C.ar    1  UNL1        0.0193
     16 C         139.3804  140.1711  167.2766 C.ar    1  UNL1        0.0844
     17 N         138.7231  139.4971  168.4444 N.ar    1  UNL1       -0.2117
     18 C         138.8592  140.0790  169.8202 C.ar    1  UNL1        0.2251
     19 C         139.6525  141.3350  170.0282 C.ar    1  UNL1        0.0577
     20 C         140.3098  142.0090  168.8604 C.ar    1  UNL1        0.0063
     21 C         140.1737  141.4270  167.4846 C.ar    1  UNL1        0.0180
     22 C         140.8309  142.1010  166.3168 C.ar    1  UNL1        0.0031
     23 O         138.2019  139.4051  170.9880 O.3     1  UNL1       -0.4509
     24 C         136.7179  139.1868  170.9901 C.3     1  UNL1        0.3095
     25 C         136.1194  138.1101  171.8461 C.3     1  UNL1        0.4381
     26 F         135.5210  137.0335  172.7020 F       1  UNL1       -0.1663
     27 F         134.7441  138.5902  171.4883 F       1  UNL1       -0.1663
     28 F         137.4947  137.6301  172.2038 F       1  UNL1       -0.1663
     29 C         144.1984  142.8095  161.2072 C.3     1  UNL1        0.1291
     30 C         144.3882  139.6638  156.1015 C.3     1  UNL1        0.0896
     31 N         144.3408  140.4503  157.3780 N.3     1  UNL1       -0.2715
     32 C         143.6951  139.8623  158.5976 C.3     1  UNL1        0.0722
     33 C         143.6476  140.6487  159.8740 C.3     1  UNL1        0.0194
     34 C         144.2459  142.0231  159.9308 C.3     1  UNL1        0.0272
     35 C         144.8915  142.6111  158.7112 C.3     1  UNL1        0.0194
     36 C         144.9390  141.8247  157.4348 C.3     1  UNL1        0.0722
@<TRIPOS>BOND
     1    30    31    1
     2    31    32    1
     3    32    33    1
     4    33    34    1
     5    34    29    1
     6    29     1    1
     7     1     2   ar
     8     2     3   ar
     9     3    13    1
    10    13    14   ar
    11    14    15   ar
    12    15    16   ar
    13    16    17   ar
    14    17    18   ar
    15    18    23    1
    16    23    24    1
    17    24    25    1
    18    25    26    1
    19    25    27    1
    20    25    28    1
    21    18    19   ar
    22    19    20   ar
    23    20    21   ar
    24    21    22   ar
    25     3     4   ar
    26     4     5   ar
    27     5     6    1
    28     5     7   ar
    29     7     8   ar
    30     8     9   ar
    31     9    10   ar
    32    34    35    1
    33    35    36    1
    34    36    31    1
    35    10     1   ar
    36    22    13   ar
    37    10     4   ar
    38    21    16   ar
    39     6    11    1
    40     6    12    1
@<TRIPOS>MOLECULE
*****
 36 40 0 0 0
SMALL
GASTEIGER

@<TRIPOS>ATOM
      1 N         141.9780  137.7553  157.9827 N.ar    1  UNL1       -0.2340
      2 N         142.1131  137.8640  159.4727 N.ar    1  UNL1       -0.1679
      3 C         140.9507  138.6607  159.9866 C.ar    1  UNL1        0.1065
      4 C         140.0972  139.0444  158.8142 C.ar    1  UNL1        0.0860
      5 C         138.8239  139.8310  158.7145 C.ar    1  UNL1        0.1316
      6 N         138.1890  140.3905  159.9529 N.pl3   1  UNL1       -0.3425
      7 N         138.1855  140.0580  157.3762 N.ar    1  UNL1       -0.2093
      8 C         138.8204  139.4985  156.1377 C.ar    1  UNL1        0.2014
      9 N         140.0937  138.7119  156.2376 N.ar    1  UNL1       -0.2050
     10 C         140.7321  138.4848  157.5758 C.ar    1  UNL1        0.1653
     11 H         138.6080  140.2415  160.8312 H       1  UNL1        0.1437
     12 H         137.3533  140.9068  159.8874 H       1  UNL1        0.1437
     13 C         140.6878  139.0121  161.4210 C.ar    1  UNL1        0.0196
     14 C         141.2624  140.2696  162.0026 C.ar    1  UNL1        0.0031
     15 C         140.9996  140.6209  163.4369 C.ar    1  UNL1        0.0193
     16 C         140.1622  139.7146  164.2898 C.ar    1  UNL1        0.0844
     17 N         139.8993  140.0660  165.7242 N.ar    1  UNL1       -0.2117
     18 C         139.0619  139.1597  166.5770 C.ar    1  UNL1        0.2251
     19 C         138.4873  137.9020  165.9954 C.ar    1  UNL1        0.0577
     20 C         138.7501  137.5507  164.5611 C.ar    1  UNL1        0.0063
     21 C         139.5876  138.4570  163.7082 C.ar    1  UNL1        0.0180
     22 C         139.8504  138.1057  162.2739 C.ar    1  UNL1        0.0031
     23 O         138.7991  139.5109  168.0114 O.3     1  UNL1       -0.4509
     24 C         139.8791  140.1424  168.8390 C.3     1  UNL1        0.3095
     25 C         139.5597  141.3107  169.7238 C.3     1  UNL1        0.4381
     26 F         139.2402  142.4790  170.6087 F       1  UNL1       -0.1663
     27 F         138.2748  140.6519  170.1299 F       1  UNL1       -0.1663
     28 F         140.8446  141.9696  169.3178 F       1  UNL1       -0.1663
     29 C         142.9229  137.0423  157.0615 C.3     1  UNL1        0.1291
     30 C         141.8946  131.3293  155.5437 C.3     1  UNL1        0.0896
     31 N         142.1517  132.7576  155.9232 N.3     1  UNL1       -0.2715
     32 C         141.4045  133.8622  155.2364 C.3     1  UNL1        0.0722
     33 C         141.6616  135.2904  155.6159 C.3     1  UNL1        0.0194
     34 C         142.6659  135.6141  156.6820 C.3     1  UNL1        0.0272
     35 C         143.4130  134.5095  157.3688 C.3     1  UNL1        0.0194
     36 C         143.1560  133.0812  156.9893 C.3     1  UNL1        0.0722
@<TRIPOS>BOND
     1    30    31    1
     2    31    32    1
     3    32    33    1
     4    33    34    1
     5    34    29    1
     6    29     1    1
     7     1     2   ar
     8     2     3   ar
     9     3    13    1
    10    13    14   ar
    11    14    15   ar
    12    15    16   ar
    13    16    17   ar
    14    17    18   ar
    15    18    23    1
    16    23    24    1
    17    24    25    1
    18    25    26    1
    19    25    27    1
    20    25    28    1
    21    18    19   ar
    22    19    20   ar
    23    20    21   ar
    24    21    22   ar
    25     3     4   ar
    26     4     5   ar
    27     5     6    1
    28     5     7   ar
    29     7     8   ar
    30     8     9   ar
    31     9    10   ar
    32    34    35    1
    33    35    36    1
    34    36    31    1
    35    10     1   ar
    36    22    13   ar
    37    10     4   ar
    38    21    16   ar
    39     6    11    1
    40     6    12    1
@<TRIPOS>MOLECULE
*****
 36 40 0 0 0
SMALL
GASTEIGER

@<TRIPOS>ATOM
      1 N         141.4706  138.3604  158.9048 N.ar    1  UNL1       -0.2340
      2 N         141.5328  138.1568  160.3896 N.ar    1  UNL1       -0.1679
      3 C         140.2842  138.7324  160.9892 C.ar    1  UNL1        0.1065
      4 C         139.4502  139.2918  159.8749 C.ar    1  UNL1        0.0860
      5 C         138.1179  139.9809  159.8669 C.ar    1  UNL1        0.1316
      6 N         137.3847  140.2108  161.1552 N.pl3   1  UNL1       -0.3425
      7 N         137.5187  140.4400  158.5707 N.ar    1  UNL1       -0.2093
      8 C         138.2519  140.2101  157.2825 C.ar    1  UNL1        0.2014
      9 N         139.5843  139.5210  157.2905 N.ar    1  UNL1       -0.2050
     10 C         140.1834  139.0619  158.5867 C.ar    1  UNL1        0.1653
     11 H         137.7779  139.9094  162.0059 H       1  UNL1        0.1437
     12 H         136.5102  140.6630  161.1499 H       1  UNL1        0.1437
     13 C         139.9314  138.7462  162.4471 C.ar    1  UNL1        0.0196
     14 C         139.1386  137.6181  163.0376 C.ar    1  UNL1        0.0031
     15 C         138.7859  137.6320  164.4955 C.ar    1  UNL1        0.0193
     16 C         139.2260  138.7740  165.3628 C.ar    1  UNL1        0.0844
     17 N         138.8732  138.7878  166.8207 N.ar    1  UNL1       -0.2117
     18 C         139.3132  139.9298  167.6880 C.ar    1  UNL1        0.2251
     19 C         140.1061  141.0579  167.0974 C.ar    1  UNL1        0.0577
     20 C         140.4588  141.0441  165.6395 C.ar    1  UNL1        0.0063
     21 C         140.0188  139.9021  164.7722 C.ar    1  UNL1        0.0180
     22 C         140.3715  139.8882  163.3144 C.ar    1  UNL1        0.0031
     23 O         138.9605  139.9436  169.1458 O.3     1  UNL1       -0.4509
     24 C         139.4423  141.0607  170.0235 C.3     1  UNL1        0.3095
     25 C         140.7017  140.8975  170.8217 C.3     1  UNL1        0.4381
     26 F         141.9611  140.7343  171.6200 F       1  UNL1       -0.1663
     27 F         140.7851  139.4615  170.3966 F       1  UNL1       -0.1663
     28 F         140.6183  142.3335  171.2469 F       1  UNL1       -0.1663
     29 C         142.5125  137.9369  157.9123 C.3     1  UNL1        0.1291
     30 C         141.6135  133.0792  154.5072 C.3     1  UNL1        0.0896
     31 N         141.8382  134.2937  155.3585 N.3     1  UNL1       -0.2715
     32 C         142.8789  134.2703  156.4386 C.3     1  UNL1        0.0722
     33 C         143.1036  135.4847  157.2899 C.3     1  UNL1        0.0194
     34 C         142.2878  136.7225  157.0611 C.3     1  UNL1        0.0272
     35 C         141.2471  136.7458  155.9810 C.3     1  UNL1        0.0194
     36 C         141.0224  135.5314  155.1297 C.3     1  UNL1        0.0722
@<TRIPOS>BOND
     1    30    31    1
     2    31    32    1
     3    32    33    1
     4    33    34    1
     5    34    29    1
     6    29     1    1
     7     1     2   ar
     8     2     3   ar
     9     3    13    1
    10    13    14   ar
    11    14    15   ar
    12    15    16   ar
    13    16    17   ar
    14    17    18   ar
    15    18    23    1
    16    23    24    1
    17    24    25    1
    18    25    26    1
    19    25    27    1
    20    25    28    1
    21    18    19   ar
    22    19    20   ar
    23    20    21   ar
    24    21    22   ar
    25     3     4   ar
    26     4     5   ar
    27     5     6    1
    28     5     7   ar
    29     7     8   ar
    30     8     9   ar
    31     9    10   ar
    32    34    35    1
    33    35    36    1
    34    36    31    1
    35    10     1   ar
    36    22    13   ar
    37    10     4   ar
    38    21    16   ar
    39     6    11    1
    40     6    12    1
@<TRIPOS>MOLECULE
*****
 36 40 0 0 0
SMALL
GASTEIGER

@<TRIPOS>ATOM
      1 N         144.1140  142.7334  159.4291 N.ar    1  UNL1       -0.2340
      2 N         144.4437  142.2785  160.8199 N.ar    1  UNL1       -0.1679
      3 C         143.4802  142.9356  161.7632 C.ar    1  UNL1        0.1065
      4 C         142.5550  143.7967  160.9553 C.ar    1  UNL1        0.0860
      5 C         141.4065  144.6785  161.3470 C.ar    1  UNL1        0.1316
      6 N         141.0148  144.8035  162.7895 N.pl3   1  UNL1       -0.3425
      7 N         140.6497  145.4353  160.2960 N.ar    1  UNL1       -0.2093
      8 C         141.0413  145.3103  158.8535 C.ar    1  UNL1        0.2014
      9 N         142.1899  144.4285  158.4619 N.ar    1  UNL1       -0.2050
     10 C         142.9467  143.6718  159.5128 C.ar    1  UNL1        0.1653
     11 H         141.5116  144.3068  163.4793 H       1  UNL1        0.1437
     12 H         140.2610  145.3822  163.0465 H       1  UNL1        0.1437
     13 C         143.4476  142.7622  163.2528 C.ar    1  UNL1        0.0196
     14 C         144.3199  143.6142  164.1264 C.ar    1  UNL1        0.0031
     15 C         144.2873  143.4407  165.6159 C.ar    1  UNL1        0.0193
     16 C         143.3823  142.4153  166.2319 C.ar    1  UNL1        0.0844
     17 N         143.3497  142.2418  167.7215 N.ar    1  UNL1       -0.2117
     18 C         142.4447  141.2164  168.3375 C.ar    1  UNL1        0.2251
     19 C         141.5723  140.3644  167.4639 C.ar    1  UNL1        0.0577
     20 C         141.6049  140.5378  165.9744 C.ar    1  UNL1        0.0063
     21 C         142.5099  141.5633  165.3584 C.ar    1  UNL1        0.0180
     22 C         142.5426  141.7368  163.8688 C.ar    1  UNL1        0.0031
     23 O         142.4120  141.0429  169.8271 O.3     1  UNL1       -0.4509
     24 C         141.4288  141.8201  170.6513 C.3     1  UNL1        0.3095
     25 C         140.8268  143.0821  170.1082 C.3     1  UNL1        0.4381
     26 F         140.2248  144.3440  169.5650 F       1  UNL1       -0.1663
     27 F         139.5206  142.3725  169.9074 F       1  UNL1       -0.1663
     28 F         142.1330  143.7916  170.3090 F       1  UNL1       -0.1663
     29 C         144.8265  142.3221  158.1748 C.3     1  UNL1        0.1291
     30 C         143.4902  137.0997  155.5402 C.3     1  UNL1        0.0896
     31 N         143.8243  138.4054  156.1989 N.3     1  UNL1       -0.2715
     32 C         144.9043  139.2775  155.6305 C.3     1  UNL1        0.0722
     33 C         145.2383  140.5831  156.2891 C.3     1  UNL1        0.0194
     34 C         144.4924  141.0166  157.5162 C.3     1  UNL1        0.0272
     35 C         143.4124  140.1445  158.0846 C.3     1  UNL1        0.0194
     36 C         143.0783  138.8389  157.4259 C.3     1  UNL1        0.0722
@<TRIPOS>BOND
     1    30    31    1
     2    31    32    1
     3    32    33    1
     4    33    34    1
     5    34    29    1
     6    29     1    1
     7     1     2   ar
     8     2     3   ar
     9     3    13    1
    10    13    14   ar
    11    14    15   ar
    12    15    16   ar
    13    16    17   ar
    14    17    18   ar
    15    18    23    1
    16    23    24    1
    17    24    25    1
    18    25    26    1
    19    25    27    1
    20    25    28    1
    21    18    19   ar
    22    19    20   ar
    23    20    21   ar
    24    21    22   ar
    25     3     4   ar
    26     4     5   ar
    27     5     6    1
    28     5     7   ar
    29     7     8   ar
    30     8     9   ar
    31     9    10   ar
    32    34    35    1
    33    35    36    1
    34    36    31    1
    35    10     1   ar
    36    22    13   ar
    37    10     4   ar
    38    21    16   ar
    39     6    11    1
    40     6    12    1
@<TRIPOS>MOLECULE
*****
 36 40 0 0 0
SMALL
GASTEIGER

@<TRIPOS>ATOM
      1 N         142.2932  137.6080  158.2386 N.ar    1  UNL1       -0.2340
      2 N         142.7684  137.5753  159.6609 N.ar    1  UNL1       -0.1679
      3 C         141.7628  138.3035  160.5025 C.ar    1  UNL1        0.1065
      4 C         140.6660  138.7863  159.6003 C.ar    1  UNL1        0.0860
      5 C         139.4111  139.5618  159.8721 C.ar    1  UNL1        0.1316
      6 N         139.0833  139.9917  161.2713 N.pl3   1  UNL1       -0.3425
      7 N         138.4840  139.9075  158.7447 N.ar    1  UNL1       -0.2093
      8 C         138.8118  139.4777  157.3455 C.ar    1  UNL1        0.2014
      9 N         140.0667  138.7021  157.0738 N.ar    1  UNL1       -0.2050
     10 C         140.9937  138.3565  158.2011 C.ar    1  UNL1        0.1653
     11 H         139.6918  139.7648  162.0113 H       1  UNL1        0.1437
     12 H         138.2597  140.5007  161.4497 H       1  UNL1        0.1437
     13 C         141.8403  138.5123  161.9859 C.ar    1  UNL1        0.0196
     14 C         141.3371  137.4519  162.9199 C.ar    1  UNL1        0.0031
     15 C         141.4146  137.6607  164.4032 C.ar    1  UNL1        0.0193
     16 C         141.9953  138.9300  164.9526 C.ar    1  UNL1        0.0844
     17 N         142.0728  139.1388  166.4360 N.ar    1  UNL1       -0.2117
     18 C         142.6535  140.4080  166.9854 C.ar    1  UNL1        0.2251
     19 C         143.1567  141.4684  166.0514 C.ar    1  UNL1        0.0577
     20 C         143.0792  141.2596  164.5681 C.ar    1  UNL1        0.0063
     21 C         142.4985  139.9904  164.0187 C.ar    1  UNL1        0.0180
     22 C         142.4210  139.7815  162.5353 C.ar    1  UNL1        0.0031
     23 O         142.7310  140.6168  168.4688 O.3     1  UNL1       -0.4509
     24 C         142.0372  141.7883  169.0985 C.3     1  UNL1        0.3095
     25 C         142.8051  142.7314  169.9765 C.3     1  UNL1        0.4381
     26 F         143.5729  143.6746  170.8544 F       1  UNL1       -0.1663
     27 F         143.9671  141.7829  169.9792 F       1  UNL1       -0.1663
     28 F         141.6431  143.6799  169.9738 F       1  UNL1       -0.1663
     29 C         142.9942  136.9991  157.0605 C.3     1  UNL1        0.1291
     30 C         141.8139  131.3370  155.4645 C.3     1  UNL1        0.0896
     31 N         142.1090  132.7526  155.8636 N.3     1  UNL1       -0.2715
     32 C         141.3924  133.8861  155.1915 C.3     1  UNL1        0.0722
     33 C         141.6875  135.3017  155.5905 C.3     1  UNL1        0.0194
     34 C         142.6991  135.5836  156.6615 C.3     1  UNL1        0.0272
     35 C         143.4157  134.4501  157.3335 C.3     1  UNL1        0.0194
     36 C         143.1206  133.0345  156.9346 C.3     1  UNL1        0.0722
@<TRIPOS>BOND
     1    30    31    1
     2    31    32    1
     3    32    33    1
     4    33    34    1
     5    34    29    1
     6    29     1    1
     7     1     2   ar
     8     2     3   ar
     9     3    13    1
    10    13    14   ar
    11    14    15   ar
    12    15    16   ar
    13    16    17   ar
    14    17    18   ar
    15    18    23    1
    16    23    24    1
    17    24    25    1
    18    25    26    1
    19    25    27    1
    20    25    28    1
    21    18    19   ar
    22    19    20   ar
    23    20    21   ar
    24    21    22   ar
    25     3     4   ar
    26     4     5   ar
    27     5     6    1
    28     5     7   ar
    29     7     8   ar
    30     8     9   ar
    31     9    10   ar
    32    34    35    1
    33    35    36    1
    34    36    31    1
    35    10     1   ar
    36    22    13   ar
    37    10     4   ar
    38    21    16   ar
    39     6    11    1
    40     6    12    1
@<TRIPOS>MOLECULE
*****
 36 40 0 0 0
SMALL
GASTEIGER

@<TRIPOS>ATOM
      1 N         142.2155  142.2474  162.1112 N.ar    1  UNL1       -0.2340
      2 N         141.2690  142.2709  163.2746 N.ar    1  UNL1       -0.1679
      3 C         141.1984  140.8846  163.8429 C.ar    1  UNL1        0.1065
      4 C         142.1014  140.0042  163.0307 C.ar    1  UNL1        0.0860
      5 C         142.4324  138.5444  163.1274 C.ar    1  UNL1        0.1316
      6 N         141.8038  137.7021  164.1977 N.pl3   1  UNL1       -0.3425
      7 N         143.3920  137.9268  162.1539 N.ar    1  UNL1       -0.2093
      8 C         144.0206  138.7690  161.0836 C.ar    1  UNL1        0.2014
      9 N         143.6895  140.2289  160.9869 N.ar    1  UNL1       -0.2050
     10 C         142.7300  140.8464  161.9604 C.ar    1  UNL1        0.1653
     11 H         141.1740  138.1075  164.8366 H       1  UNL1        0.1437
     12 H         142.0210  136.7440  164.2612 H       1  UNL1        0.1437
     13 C         140.3703  140.4541  165.0172 C.ar    1  UNL1        0.0196
     14 C         139.2495  139.4758  164.8262 C.ar    1  UNL1        0.0031
     15 C         138.4215  139.0453  166.0005 C.ar    1  UNL1        0.0193
     16 C         138.7143  139.5933  167.3659 C.ar    1  UNL1        0.0844
     17 N         137.8862  139.1628  168.5402 N.ar    1  UNL1       -0.2117
     18 C         138.1790  139.7107  169.9055 C.ar    1  UNL1        0.2251
     19 C         139.2999  140.6891  170.0965 C.ar    1  UNL1        0.0577
     20 C         140.1279  141.1195  168.9221 C.ar    1  UNL1        0.0063
     21 C         139.8351  140.5716  167.5568 C.ar    1  UNL1        0.0180
     22 C         140.6631  141.0020  166.3825 C.ar    1  UNL1        0.0031
     23 O         137.3509  139.2803  171.0798 O.3     1  UNL1       -0.4509
     24 C         136.4824  138.0615  170.9787 C.3     1  UNL1        0.3095
     25 C         135.9151  137.4397  172.2202 C.3     1  UNL1        0.4381
     26 F         135.3478  136.8178  173.4617 F       1  UNL1       -0.1663
     27 F         134.7238  138.3466  172.1301 F       1  UNL1       -0.1663
     28 F         137.1064  136.5327  172.3103 F       1  UNL1       -0.1663
     29 C         142.5831  143.4191  161.2497 C.3     1  UNL1        0.1291
     30 C         139.3747  144.6501  156.3313 C.3     1  UNL1        0.0896
     31 N         140.1768  144.3424  157.5610 N.3     1  UNL1       -0.2715
     32 C         140.8466  143.0079  157.7050 C.3     1  UNL1        0.0722
     33 C         141.6487  142.7002  158.9346 C.3     1  UNL1        0.0194
     34 C         141.7810  143.7268  160.0201 C.3     1  UNL1        0.0272
     35 C         141.1112  145.0613  159.8761 C.3     1  UNL1        0.0194
     36 C         140.3091  145.3690  158.6465 C.3     1  UNL1        0.0722
@<TRIPOS>BOND
     1    30    31    1
     2    31    32    1
     3    32    33    1
     4    33    34    1
     5    34    29    1
     6    29     1    1
     7     1     2   ar
     8     2     3   ar
     9     3    13    1
    10    13    14   ar
    11    14    15   ar
    12    15    16   ar
    13    16    17   ar
    14    17    18   ar
    15    18    23    1
    16    23    24    1
    17    24    25    1
    18    25    26    1
    19    25    27    1
    20    25    28    1
    21    18    19   ar
    22    19    20   ar
    23    20    21   ar
    24    21    22   ar
    25     3     4   ar
    26     4     5   ar
    27     5     6    1
    28     5     7   ar
    29     7     8   ar
    30     8     9   ar
    31     9    10   ar
    32    34    35    1
    33    35    36    1
    34    36    31    1
    35    10     1   ar
    36    22    13   ar
    37    10     4   ar
    38    21    16   ar
    39     6    11    1
    40     6    12    1
@<TRIPOS>MOLECULE
*****
 36 40 0 0 0
SMALL
GASTEIGER

@<TRIPOS>ATOM
      1 N         144.0776  141.4834  159.1556 N.ar    1  UNL1       -0.2340
      2 N         144.0721  141.6805  160.6426 N.ar    1  UNL1       -0.1679
      3 C         143.6040  140.4048  161.2776 C.ar    1  UNL1        0.1065
      4 C         143.3202  139.4191  160.1830 C.ar    1  UNL1        0.0860
      5 C         142.8330  138.0007  160.2111 C.ar    1  UNL1        0.1316
      6 N         142.5403  137.3341  161.5226 N.pl3   1  UNL1       -0.3425
      7 N         142.6386  137.2489  158.9278 N.ar    1  UNL1       -0.2093
      8 C         142.9314  137.9155  157.6163 C.ar    1  UNL1        0.2014
      9 N         143.4185  139.3339  157.5883 N.ar    1  UNL1       -0.2050
     10 C         143.6129  140.0857  158.8716 C.ar    1  UNL1        0.1653
     11 H         142.6679  137.8276  162.3649 H       1  UNL1        0.1437
     12 H         142.2205  136.4032  161.5411 H       1  UNL1        0.1437
     13 C         143.4471  140.1579  162.7488 C.ar    1  UNL1        0.0196
     14 C         144.5288  139.4506  163.5101 C.ar    1  UNL1        0.0031
     15 C         144.3719  139.2037  164.9813 C.ar    1  UNL1        0.0193
     16 C         143.1333  139.6643  165.6912 C.ar    1  UNL1        0.0844
     17 N         142.9765  139.4175  167.1625 N.ar    1  UNL1       -0.2117
     18 C         141.7380  139.8780  167.8724 C.ar    1  UNL1        0.2251
     19 C         140.6563  140.5854  167.1110 C.ar    1  UNL1        0.0577
     20 C         140.8132  140.8322  165.6398 C.ar    1  UNL1        0.0063
     21 C         142.0517  140.3717  164.9299 C.ar    1  UNL1        0.0180
     22 C         142.2086  140.6185  163.4587 C.ar    1  UNL1        0.0031
     23 O         141.5811  139.6312  169.3435 O.3     1  UNL1       -0.4509
     24 C         142.4360  140.3774  170.3246 C.3     1  UNL1        0.3095
     25 C         142.5458  141.8709  170.2397 C.3     1  UNL1        0.4381
     26 F         142.6556  143.3644  170.1548 F       1  UNL1       -0.1663
     27 F         144.0041  141.7451  169.9119 F       1  UNL1       -0.1663
     28 F         141.0875  141.9968  170.5674 F       1  UNL1       -0.1663
     29 C         144.4777  142.5046  158.1323 C.3     1  UNL1        0.1291
     30 C         149.4902  141.7345  154.9258 C.3     1  UNL1        0.0896
     31 N         148.2370  141.9270  155.7275 N.3     1  UNL1       -0.2715
     32 C         146.9544  141.2922  155.2783 C.3     1  UNL1        0.0722
     33 C         145.7013  141.4847  156.0799 C.3     1  UNL1        0.0194
     34 C         145.7308  142.3121  157.3307 C.3     1  UNL1        0.0272
     35 C         147.0134  142.9469  157.7799 C.3     1  UNL1        0.0194
     36 C         148.2666  142.7544  156.9783 C.3     1  UNL1        0.0722
@<TRIPOS>BOND
     1    30    31    1
     2    31    32    1
     3    32    33    1
     4    33    34    1
     5    34    29    1
     6    29     1    1
     7     1     2   ar
     8     2     3   ar
     9     3    13    1
    10    13    14   ar
    11    14    15   ar
    12    15    16   ar
    13    16    17   ar
    14    17    18   ar
    15    18    23    1
    16    23    24    1
    17    24    25    1
    18    25    26    1
    19    25    27    1
    20    25    28    1
    21    18    19   ar
    22    19    20   ar
    23    20    21   ar
    24    21    22   ar
    25     3     4   ar
    26     4     5   ar
    27     5     6    1
    28     5     7   ar
    29     7     8   ar
    30     8     9   ar
    31     9    10   ar
    32    34    35    1
    33    35    36    1
    34    36    31    1
    35    10     1   ar
    36    22    13   ar
    37    10     4   ar
    38    21    16   ar
    39     6    11    1
    40     6    12    1
@<TRIPOS>MOLECULE
*****
 36 40 0 0 0
SMALL
GASTEIGER

@<TRIPOS>ATOM
      1 N         142.8192  141.8001  159.3961 N.ar    1  UNL1       -0.2340
      2 N         143.1759  141.4203  160.8026 N.ar    1  UNL1       -0.1679
      3 C         142.6893  142.5077  161.7140 C.ar    1  UNL1        0.1065
      4 C         142.0318  143.5597  160.8707 C.ar    1  UNL1        0.0860
      5 C         141.3704  144.8592  161.2222 C.ar    1  UNL1        0.1316
      6 N         141.2901  145.2965  162.6547 N.pl3   1  UNL1       -0.3425
      7 N         140.7892  145.7215  160.1411 N.ar    1  UNL1       -0.2093
      8 C         140.8696  145.2843  158.7085 C.ar    1  UNL1        0.2014
      9 N         141.5310  143.9846  158.3570 N.ar    1  UNL1       -0.2050
     10 C         142.1121  143.1224  159.4381 C.ar    1  UNL1        0.1653
     11 H         141.6715  144.7306  163.3643 H       1  UNL1        0.1437
     12 H         140.8559  146.1495  162.8855 H       1  UNL1        0.1437
     13 C         142.8345  142.5379  163.2067 C.ar    1  UNL1        0.0196
     14 C         144.1679  142.8383  163.8245 C.ar    1  UNL1        0.0031
     15 C         144.3131  142.8686  165.3172 C.ar    1  UNL1        0.0193
     16 C         143.1250  142.5984  166.1919 C.ar    1  UNL1        0.0844
     17 N         143.2702  142.6286  167.6846 N.ar    1  UNL1       -0.2117
     18 C         142.0821  142.3585  168.5594 C.ar    1  UNL1        0.2251
     19 C         140.7486  142.0581  167.9415 C.ar    1  UNL1        0.0577
     20 C         140.6034  142.0278  166.4489 C.ar    1  UNL1        0.0063
     21 C         141.7916  142.2980  165.5741 C.ar    1  UNL1        0.0180
     22 C         141.6464  142.2678  164.0815 C.ar    1  UNL1        0.0031
     23 O         142.2273  142.3887  170.0520 O.3     1  UNL1       -0.4509
     24 C         141.8713  141.1793  170.8649 C.3     1  UNL1        0.3095
     25 C         142.2571  139.8120  170.3836 C.3     1  UNL1        0.4381
     26 F         142.6428  138.4447  169.9023 F       1  UNL1       -0.1663
     27 F         140.8125  139.4905  170.1391 F       1  UNL1       -0.1663
     28 F         143.7016  140.1335  170.6281 F       1  UNL1       -0.1663
     29 C         143.1173  140.9985  158.1637 C.3     1  UNL1        0.1291
     30 C         148.2294  141.9078  155.1570 C.3     1  UNL1        0.0896
     31 N         146.9513  141.6804  155.9088 N.3     1  UNL1       -0.2715
     32 C         146.0249  140.5753  155.4960 C.3     1  UNL1        0.0722
     33 C         144.7469  140.3479  156.2477 C.3     1  UNL1        0.0194
     34 C         144.3953  141.2258  157.4121 C.3     1  UNL1        0.0272
     35 C         145.3218  142.3310  157.8248 C.3     1  UNL1        0.0194
     36 C         146.5998  142.5583  157.0731 C.3     1  UNL1        0.0722
@<TRIPOS>BOND
     1    30    31    1
     2    31    32    1
     3    32    33    1
     4    33    34    1
     5    34    29    1
     6    29     1    1
     7     1     2   ar
     8     2     3   ar
     9     3    13    1
    10    13    14   ar
    11    14    15   ar
    12    15    16   ar
    13    16    17   ar
    14    17    18   ar
    15    18    23    1
    16    23    24    1
    17    24    25    1
    18    25    26    1
    19    25    27    1
    20    25    28    1
    21    18    19   ar
    22    19    20   ar
    23    20    21   ar
    24    21    22   ar
    25     3     4   ar
    26     4     5   ar
    27     5     6    1
    28     5     7   ar
    29     7     8   ar
    30     8     9   ar
    31     9    10   ar
    32    34    35    1
    33    35    36    1
    34    36    31    1
    35    10     1   ar
    36    22    13   ar
    37    10     4   ar
    38    21    16   ar
    39     6    11    1
    40     6    12    1
@<TRIPOS>MOLECULE
*****
 36 40 0 0 0
SMALL
GASTEIGER

@<TRIPOS>ATOM
      1 N         143.4862  142.7428  159.7392 N.ar    1  UNL1       -0.2340
      2 N         143.4076  142.0761  161.0806 N.ar    1  UNL1       -0.1679
      3 C         142.2348  142.6528  161.8167 C.ar    1  UNL1        0.1065
      4 C         141.5886  143.6759  160.9303 C.ar    1  UNL1        0.0860
      5 C         140.3958  144.5640  161.1264 C.ar    1  UNL1        0.1316
      6 N         139.6224  144.5083  162.4105 N.pl3   1  UNL1       -0.3425
      7 N         139.9764  145.5077  160.0386 N.ar    1  UNL1       -0.2093
      8 C         140.7498  145.5634  158.7546 C.ar    1  UNL1        0.2014
      9 N         141.9426  144.6752  158.5585 N.ar    1  UNL1       -0.2050
     10 C         142.3620  143.7315  159.6463 C.ar    1  UNL1        0.1653
     11 H         139.8976  143.8889  163.1245 H       1  UNL1        0.1437
     12 H         138.8395  145.0912  162.5392 H       1  UNL1        0.1437
     13 C         141.7868  142.2731  163.1970 C.ar    1  UNL1        0.0196
     14 C         142.3104  143.0203  164.3876 C.ar    1  UNL1        0.0031
     15 C         141.8624  142.6406  165.7678 C.ar    1  UNL1        0.0193
     16 C         140.8908  141.5136  165.9575 C.ar    1  UNL1        0.0844
     17 N         140.4429  141.1339  167.3378 N.ar    1  UNL1       -0.2117
     18 C         139.4713  140.0069  167.5275 C.ar    1  UNL1        0.2251
     19 C         138.9477  139.2597  166.3368 C.ar    1  UNL1        0.0577
     20 C         139.3956  139.6394  164.9566 C.ar    1  UNL1        0.0063
     21 C         140.3672  140.7664  164.7669 C.ar    1  UNL1        0.0180
     22 C         140.8152  141.1461  163.3867 C.ar    1  UNL1        0.0031
     23 O         139.0233  139.6272  168.9077 O.3     1  UNL1       -0.4509
     24 C         139.1373  140.6143  170.0314 C.3     1  UNL1        0.3095
     25 C         140.4180  140.7263  170.8042 C.3     1  UNL1        0.4381
     26 F         141.6987  140.8384  171.5770 F       1  UNL1       -0.1663
     27 F         140.1123  142.1642  171.1025 F       1  UNL1       -0.1663
     28 F         140.7238  139.2885  170.5059 F       1  UNL1       -0.1663
     29 C         144.5094  142.4689  158.6771 C.3     1  UNL1        0.1291
     30 C         144.0162  137.5870  155.2239 C.3     1  UNL1        0.0896
     31 N         144.1395  138.8075  156.0872 N.3     1  UNL1       -0.2715
     32 C         145.2122  139.8182  155.8083 C.3     1  UNL1        0.0722
     33 C         145.3355  141.0387  156.6716 C.3     1  UNL1        0.0194
     34 C         144.3861  141.2484  157.8138 C.3     1  UNL1        0.0272
     35 C         143.3134  140.2377  158.0927 C.3     1  UNL1        0.0194
     36 C         143.1901  139.0173  157.2294 C.3     1  UNL1        0.0722
@<TRIPOS>BOND
     1    30    31    1
     2    31    32    1
     3    32    33    1
     4    33    34    1
     5    34    29    1
     6    29     1    1
     7     1     2   ar
     8     2     3   ar
     9     3    13    1
    10    13    14   ar
    11    14    15   ar
    12    15    16   ar
    13    16    17   ar
    14    17    18   ar
    15    18    23    1
    16    23    24    1
    17    24    25    1
    18    25    26    1
    19    25    27    1
    20    25    28    1
    21    18    19   ar
    22    19    20   ar
    23    20    21   ar
    24    21    22   ar
    25     3     4   ar
    26     4     5   ar
    27     5     6    1
    28     5     7   ar
    29     7     8   ar
    30     8     9   ar
    31     9    10   ar
    32    34    35    1
    33    35    36    1
    34    36    31    1
    35    10     1   ar
    36    22    13   ar
    37    10     4   ar
    38    21    16   ar
    39     6    11    1
    40     6    12    1
