@<TRIPOS>MOLECULE
*****
 29 33 0 0 0
SMALL
GASTEIGER

@<TRIPOS>ATOM
      1 C         142.7392  138.5442  165.5108 C.ar    1  UNL1       -0.0207
      2 C         141.6113  137.6473  165.0945 C.ar    1  UNL1       -0.0027
      3 C         141.3752  137.3648  163.6404 C.ar    1  UNL1        0.0188
      4 C         142.2671  137.9793  162.6026 C.ar    1  UNL1        0.0813
      5 N         142.0310  137.6968  161.1485 N.ar    1  UNL1       -0.2438
      6 C         142.9228  138.3113  160.1106 C.ar    1  UNL1        0.0994
      7 C         144.0507  139.2082  160.5270 C.ar    1  UNL1        0.0207
      8 C         144.2868  139.4907  161.9811 C.ar    1  UNL1        0.0031
      9 C         143.3950  138.8762  163.0189 C.ar    1  UNL1        0.0174
     10 C         143.6310  139.1587  164.4730 C.ar    1  UNL1       -0.0027
     11 C         142.6867  138.0288  158.6565 C.ar    1  UNL1        0.1059
     12 C         142.4228  139.0513  157.5912 C.ar    1  UNL1        0.0575
     13 S         142.2461  138.3287  156.2887 S.2     1  UNL1       -0.0659
     14 C         142.4008  136.8595  156.5490 C.ar    1  UNL1        0.1108
     15 N         142.6732  136.6742  158.0124 N.ar    1  UNL1       -0.2368
     16 C         142.3008  135.7675  155.5256 C.ar    1  UNL1        0.0238
     17 C         142.5520  134.3428  155.9220 C.ar    1  UNL1        0.0020
     18 C         142.4520  133.2507  154.8986 C.ar    1  UNL1        0.0001
     19 C         142.1008  133.5833  153.4787 C.ar    1  UNL1        0.0000
     20 C         141.8496  135.0080  153.0822 C.ar    1  UNL1        0.0001
     21 C         141.9496  136.1001  154.1057 C.ar    1  UNL1        0.0020
     22 C         142.9753  138.8267  166.9650 C.3     1  UNL1        0.0437
     23 C         142.5590  140.1435  167.5504 C.3     1  UNL1        0.0768
     24 C         139.3675  140.1214  166.8697 C.3     1  UNL1        0.0173
     25 C         139.9765  140.1899  168.2388 C.3     1  UNL1        0.0576
     26 C         139.2255  140.2603  169.5354 C.3     1  UNL1        0.0174
     27 C         140.2284  140.3139  170.6496 C.3     1  UNL1        0.0187
     28 C         141.5992  140.2767  170.0416 C.3     1  UNL1        0.0721
     29 N         141.4435  140.2001  168.5517 N.3     1  UNL1       -0.2737
@<TRIPOS>BOND
     1    25    24    1
     2    25    26    1
     3    26    27    1
     4    27    28    1
     5    28    29    1
     6    29    23    1
     7    23    22    1
     8    22     1    1
     9     1     2   ar
    10     2     3   ar
    11     3     4   ar
    12     4     5   ar
    13     5     6   ar
    14     6    11    1
    15    11    12   ar
    16    12    13   ar
    17    13    14   ar
    18    14    16    1
    19    16    17   ar
    20    17    18   ar
    21    18    19   ar
    22    19    20   ar
    23    20    21   ar
    24    14    15   ar
    25     6     7   ar
    26     7     8   ar
    27     8     9   ar
    28     9    10   ar
    29    29    25    1
    30    10     1   ar
    31     9     4   ar
    32    15    11   ar
    33    21    16   ar
@<TRIPOS>MOLECULE
*****
 29 33 0 0 0
SMALL
GASTEIGER

@<TRIPOS>ATOM
      1 C         140.8392  145.7752  156.5253 C.ar    1  UNL1       -0.0207
      2 C         142.0095  144.8706  156.2760 C.ar    1  UNL1       -0.0027
      3 C         142.6791  144.1767  157.4249 C.ar    1  UNL1        0.0188
      4 C         142.1784  144.3873  158.8231 C.ar    1  UNL1        0.0813
      5 N         142.8481  143.6933  159.9721 N.ar    1  UNL1       -0.2438
      6 C         142.3473  143.9039  161.3702 C.ar    1  UNL1        0.0994
      7 C         141.1770  144.8085  161.6195 C.ar    1  UNL1        0.0207
      8 C         140.5074  145.5024  160.4706 C.ar    1  UNL1        0.0031
      9 C         141.0081  145.2918  159.0724 C.ar    1  UNL1        0.0174
     10 C         140.3385  145.9858  157.9234 C.ar    1  UNL1       -0.0027
     11 C         143.0169  143.2100  162.5192 C.ar    1  UNL1        0.1059
     12 C         144.4894  142.9622  162.6625 C.ar    1  UNL1        0.0575
     13 S         144.7141  142.2411  163.9584 S.2     1  UNL1       -0.0659
     14 C         143.3805  142.0432  164.6160 C.ar    1  UNL1        0.1108
     15 N         142.3316  142.6420  163.7265 N.ar    1  UNL1       -0.2368
     16 C         143.1384  141.3654  165.9321 C.ar    1  UNL1        0.0238
     17 C         143.0263  139.8710  165.9967 C.ar    1  UNL1        0.0020
     18 C         142.7842  139.1932  167.3128 C.ar    1  UNL1        0.0001
     19 C         142.6541  140.0099  168.5643 C.ar    1  UNL1        0.0000
     20 C         142.7661  141.5044  168.4997 C.ar    1  UNL1        0.0001
     21 C         143.0083  142.1820  167.1836 C.ar    1  UNL1        0.0020
     22 C         140.1696  146.4691  155.3763 C.3     1  UNL1        0.0437
     23 C         138.9457  147.3031  155.6142 C.3     1  UNL1        0.0768
     24 C         137.9997  149.6227  157.7055 C.3     1  UNL1        0.0173
     25 C         138.5516  149.8484  156.3291 C.3     1  UNL1        0.0576
     26 C         138.7655  151.1799  155.6723 C.3     1  UNL1        0.0174
     27 C         139.3326  150.9366  154.3051 C.3     1  UNL1        0.0187
     28 C         139.4691  149.4546  154.1169 C.3     1  UNL1        0.0721
     29 N         138.9864  148.7822  155.3678 N.3     1  UNL1       -0.2737
@<TRIPOS>BOND
     1    25    24    1
     2    25    26    1
     3    26    27    1
     4    27    28    1
     5    28    29    1
     6    29    23    1
     7    23    22    1
     8    22     1    1
     9     1     2   ar
    10     2     3   ar
    11     3     4   ar
    12     4     5   ar
    13     5     6   ar
    14     6    11    1
    15    11    12   ar
    16    12    13   ar
    17    13    14   ar
    18    14    16    1
    19    16    17   ar
    20    17    18   ar
    21    18    19   ar
    22    19    20   ar
    23    20    21   ar
    24    14    15   ar
    25     6     7   ar
    26     7     8   ar
    27     8     9   ar
    28     9    10   ar
    29    29    25    1
    30    10     1   ar
    31     9     4   ar
    32    15    11   ar
    33    21    16   ar
@<TRIPOS>MOLECULE
*****
 29 33 0 0 0
SMALL
GASTEIGER

@<TRIPOS>ATOM
      1 C         139.4203  137.7129  163.8445 C.ar    1  UNL1       -0.0207
      2 C         138.5098  137.9704  162.6807 C.ar    1  UNL1       -0.0027
      3 C         139.0868  138.2780  161.3308 C.ar    1  UNL1        0.0188
      4 C         140.5744  138.3281  161.1447 C.ar    1  UNL1        0.0813
      5 N         141.1514  138.6357  159.7947 N.ar    1  UNL1       -0.2438
      6 C         142.6390  138.6858  159.6085 C.ar    1  UNL1        0.0994
      7 C         143.5495  138.4283  160.7725 C.ar    1  UNL1        0.0207
      8 C         142.9725  138.1207  162.1224 C.ar    1  UNL1        0.0031
      9 C         141.4849  138.0706  162.3085 C.ar    1  UNL1        0.0174
     10 C         140.9079  137.7630  163.6584 C.ar    1  UNL1       -0.0027
     11 C         143.2160  138.9934  158.2586 C.ar    1  UNL1        0.1059
     12 C         142.8376  138.3321  156.9665 C.ar    1  UNL1        0.0575
     13 S         143.6605  138.9463  155.8730 S.2     1  UNL1       -0.0659
     14 C         144.5474  139.9873  156.4894 C.ar    1  UNL1        0.1108
     15 N         144.2727  140.0164  157.9638 N.ar    1  UNL1       -0.2368
     16 C         145.5356  140.8481  155.7596 C.ar    1  UNL1        0.0238
     17 C         146.3143  141.8920  156.5036 C.ar    1  UNL1        0.0020
     18 C         147.3025  142.7527  155.7738 C.ar    1  UNL1        0.0001
     19 C         147.5119  142.5695  154.2998 C.ar    1  UNL1        0.0000
     20 C         146.7331  141.5256  153.5556 C.ar    1  UNL1        0.0001
     21 C         145.7450  140.6649  154.2856 C.ar    1  UNL1        0.0020
     22 C         138.8433  137.4052  165.1946 C.3     1  UNL1        0.0437
     23 C         138.2530  138.5051  166.0262 C.3     1  UNL1        0.0768
     24 C         138.0967  141.2406  164.2536 C.3     1  UNL1        0.0173
     25 C         138.9630  141.0187  165.4579 C.3     1  UNL1        0.0576
     26 C         139.9096  142.0151  166.0588 C.3     1  UNL1        0.0174
     27 C         140.5664  141.3736  167.2450 C.3     1  UNL1        0.0187
     28 C         140.0258  139.9806  167.3772 C.3     1  UNL1        0.0721
     29 N         139.0348  139.7613  166.2726 N.3     1  UNL1       -0.2737
@<TRIPOS>BOND
     1    25    24    1
     2    25    26    1
     3    26    27    1
     4    27    28    1
     5    28    29    1
     6    29    23    1
     7    23    22    1
     8    22     1    1
     9     1     2   ar
    10     2     3   ar
    11     3     4   ar
    12     4     5   ar
    13     5     6   ar
    14     6    11    1
    15    11    12   ar
    16    12    13   ar
    17    13    14   ar
    18    14    16    1
    19    16    17   ar
    20    17    18   ar
    21    18    19   ar
    22    19    20   ar
    23    20    21   ar
    24    14    15   ar
    25     6     7   ar
    26     7     8   ar
    27     8     9   ar
    28     9    10   ar
    29    29    25    1
    30    10     1   ar
    31     9     4   ar
    32    15    11   ar
    33    21    16   ar
@<TRIPOS>MOLECULE
*****
 29 33 0 0 0
SMALL
GASTEIGER

@<TRIPOS>ATOM
      1 C         141.9394  137.8680  157.5294 C.ar    1  UNL1       -0.0207
      2 C         140.4936  138.2633  157.5872 C.ar    1  UNL1       -0.0027
      3 C         139.8500  138.5617  158.9088 C.ar    1  UNL1        0.0188
      4 C         140.6521  138.4648  160.1726 C.ar    1  UNL1        0.0813
      5 N         140.0084  138.7633  161.4943 N.ar    1  UNL1       -0.2438
      6 C         140.8106  138.6664  162.7580 C.ar    1  UNL1        0.0994
      7 C         142.2565  138.2711  162.7002 C.ar    1  UNL1        0.0207
      8 C         142.9001  137.9727  161.3786 C.ar    1  UNL1        0.0031
      9 C         142.0979  138.0695  160.1148 C.ar    1  UNL1        0.0174
     10 C         142.7415  137.7711  158.7932 C.ar    1  UNL1       -0.0027
     11 C         140.1670  138.9648  164.0796 C.ar    1  UNL1        0.1059
     12 C         138.9120  138.3379  164.6107 C.ar    1  UNL1        0.0575
     13 S         138.6347  138.9282  165.9615 S.2     1  UNL1       -0.0659
     14 C         139.7184  139.9200  166.2653 C.ar    1  UNL1        0.1108
     15 N         140.6653  139.9426  165.1022 N.ar    1  UNL1       -0.2368
     16 C         139.8346  140.7443  167.5130 C.ar    1  UNL1        0.0238
     17 C         139.3453  140.1977  168.8214 C.ar    1  UNL1        0.0020
     18 C         139.4616  141.0221  170.0691 C.ar    1  UNL1        0.0001
     19 C         140.0671  142.3931  170.0086 C.ar    1  UNL1        0.0000
     20 C         140.5565  142.9398  168.7002 C.ar    1  UNL1        0.0001
     21 C         140.4402  142.1153  167.4525 C.ar    1  UNL1        0.0020
     22 C         142.5830  137.5695  156.2078 C.3     1  UNL1        0.0437
     23 C         143.6569  136.5264  156.1151 C.3     1  UNL1        0.0768
     24 C         142.2645  134.7392  153.7664 C.3     1  UNL1        0.0173
     25 C         142.6601  134.2509  155.1284 C.3     1  UNL1        0.0576
     26 C         142.4852  132.8554  155.6499 C.3     1  UNL1        0.0174
     27 C         143.0171  132.8144  157.0519 C.3     1  UNL1        0.0187
     28 C         143.5208  134.1846  157.3968 C.3     1  UNL1        0.0721
     29 N         143.3001  135.0723  156.2080 N.3     1  UNL1       -0.2737
@<TRIPOS>BOND
     1    25    24    1
     2    25    26    1
     3    26    27    1
     4    27    28    1
     5    28    29    1
     6    29    23    1
     7    23    22    1
     8    22     1    1
     9     1     2   ar
    10     2     3   ar
    11     3     4   ar
    12     4     5   ar
    13     5     6   ar
    14     6    11    1
    15    11    12   ar
    16    12    13   ar
    17    13    14   ar
    18    14    16    1
    19    16    17   ar
    20    17    18   ar
    21    18    19   ar
    22    19    20   ar
    23    20    21   ar
    24    14    15   ar
    25     6     7   ar
    26     7     8   ar
    27     8     9   ar
    28     9    10   ar
    29    29    25    1
    30    10     1   ar
    31     9     4   ar
    32    15    11   ar
    33    21    16   ar
@<TRIPOS>MOLECULE
*****
 29 33 0 0 0
SMALL
GASTEIGER

@<TRIPOS>ATOM
      1 C         140.9905  145.5629  157.6376 C.ar    1  UNL1       -0.0207
      2 C         141.9798  144.4385  157.7203 C.ar    1  UNL1       -0.0027
      3 C         142.2720  143.7923  159.0420 C.ar    1  UNL1        0.0188
      4 C         141.5750  144.2706  160.2811 C.ar    1  UNL1        0.0813
      5 N         141.8672  143.6243  161.6029 N.ar    1  UNL1       -0.2438
      6 C         141.1701  144.1026  162.8420 C.ar    1  UNL1        0.0994
      7 C         140.1808  145.2271  162.7593 C.ar    1  UNL1        0.0207
      8 C         139.8886  145.8733  161.4375 C.ar    1  UNL1        0.0031
      9 C         140.5857  145.3950  160.1984 C.ar    1  UNL1        0.0174
     10 C         140.2935  146.0412  158.8767 C.ar    1  UNL1       -0.0027
     11 C         141.4624  143.4564  164.1637 C.ar    1  UNL1        0.1059
     12 C         142.7977  142.9484  164.6207 C.ar    1  UNL1        0.0575
     13 S         142.6312  142.3828  166.0000 S.2     1  UNL1       -0.0659
     14 C         141.1929  142.5412  166.3953 C.ar    1  UNL1        0.1108
     15 N         140.4705  143.2047  165.2604 N.ar    1  UNL1       -0.2368
     16 C         140.5838  142.1115  167.6971 C.ar    1  UNL1        0.0238
     17 C         140.0141  140.7312  167.8391 C.ar    1  UNL1        0.0020
     18 C         139.4051  140.3015  169.1408 C.ar    1  UNL1        0.0001
     19 C         139.3658  141.2520  170.3005 C.ar    1  UNL1        0.0000
     20 C         139.9356  142.6324  170.1585 C.ar    1  UNL1        0.0001
     21 C         140.5446  143.0620  168.8567 C.ar    1  UNL1        0.0020
     22 C         140.6983  146.2092  156.3158 C.3     1  UNL1        0.0437
     23 C         139.3719  146.8690  156.0806 C.3     1  UNL1        0.0768
     24 C         138.1753  149.6056  157.3951 C.3     1  UNL1        0.0173
     25 C         138.7598  149.4703  156.0204 C.3     1  UNL1        0.0576
     26 C         138.8970  150.5691  155.0085 C.3     1  UNL1        0.0174
     27 C         139.5318  149.9903  153.7788 C.3     1  UNL1        0.0187
     28 C         139.7870  148.5337  154.0308 C.3     1  UNL1        0.0721
     29 N         139.3099  148.2124  155.4161 N.3     1  UNL1       -0.2737
@<TRIPOS>BOND
     1    25    24    1
     2    25    26    1
     3    26    27    1
     4    27    28    1
     5    28    29    1
     6    29    23    1
     7    23    22    1
     8    22     1    1
     9     1     2   ar
    10     2     3   ar
    11     3     4   ar
    12     4     5   ar
    13     5     6   ar
    14     6    11    1
    15    11    12   ar
    16    12    13   ar
    17    13    14   ar
    18    14    16    1
    19    16    17   ar
    20    17    18   ar
    21    18    19   ar
    22    19    20   ar
    23    20    21   ar
    24    14    15   ar
    25     6     7   ar
    26     7     8   ar
    27     8     9   ar
    28     9    10   ar
    29    29    25    1
    30    10     1   ar
    31     9     4   ar
    32    15    11   ar
    33    21    16   ar
@<TRIPOS>MOLECULE
*****
 29 33 0 0 0
SMALL
GASTEIGER

@<TRIPOS>ATOM
      1 C         138.5830  139.3226  165.7213 C.ar    1  UNL1       -0.0207
      2 C         138.8795  138.0159  165.0471 C.ar    1  UNL1       -0.0027
      3 C         138.9041  137.9333  163.5496 C.ar    1  UNL1        0.0188
      4 C         138.6322  139.1574  162.7263 C.ar    1  UNL1        0.0813
      5 N         138.6568  139.0747  161.2288 N.ar    1  UNL1       -0.2438
      6 C         138.3849  140.2987  160.4055 C.ar    1  UNL1        0.0994
      7 C         138.0883  141.6055  161.0798 C.ar    1  UNL1        0.0207
      8 C         138.0637  141.6881  162.5773 C.ar    1  UNL1        0.0031
      9 C         138.3356  140.4640  163.4005 C.ar    1  UNL1        0.0174
     10 C         138.3110  140.5467  164.8980 C.ar    1  UNL1       -0.0027
     11 C         138.4095  140.2161  158.9080 C.ar    1  UNL1        0.1059
     12 C         139.5397  139.6922  158.0723 C.ar    1  UNL1        0.0575
     13 S         139.1369  139.7952  156.6311 S.2     1  UNL1       -0.0659
     14 C         137.7578  140.3828  156.5760 C.ar    1  UNL1        0.1108
     15 N         137.3083  140.6429  157.9832 N.ar    1  UNL1       -0.2368
     16 C         136.9672  140.6613  155.3321 C.ar    1  UNL1        0.0238
     17 C         136.6943  142.0769  154.9181 C.ar    1  UNL1        0.0020
     18 C         135.9036  142.3555  153.6742 C.ar    1  UNL1        0.0001
     19 C         135.3858  141.2183  152.8443 C.ar    1  UNL1        0.0000
     20 C         135.6586  139.8025  153.2583 C.ar    1  UNL1        0.0001
     21 C         136.4493  139.5241  154.5022 C.ar    1  UNL1        0.0020
     22 C         138.5583  139.4053  167.2189 C.3     1  UNL1        0.0437
     23 C         139.8137  139.7300  167.9728 C.3     1  UNL1        0.0768
     24 C         141.0132  142.4884  166.7073 C.3     1  UNL1        0.0173
     25 C         140.4937  142.3118  168.1033 C.3     1  UNL1        0.0576
     26 C         140.4343  143.3721  169.1626 C.3     1  UNL1        0.0174
     27 C         139.8462  142.7595  170.3991 C.3     1  UNL1        0.0187
     28 C         139.5421  141.3205  170.1039 C.3     1  UNL1        0.0721
     29 N         139.9423  141.0439  168.6850 N.3     1  UNL1       -0.2737
@<TRIPOS>BOND
     1    25    24    1
     2    25    26    1
     3    26    27    1
     4    27    28    1
     5    28    29    1
     6    29    23    1
     7    23    22    1
     8    22     1    1
     9     1     2   ar
    10     2     3   ar
    11     3     4   ar
    12     4     5   ar
    13     5     6   ar
    14     6    11    1
    15    11    12   ar
    16    12    13   ar
    17    13    14   ar
    18    14    16    1
    19    16    17   ar
    20    17    18   ar
    21    18    19   ar
    22    19    20   ar
    23    20    21   ar
    24    14    15   ar
    25     6     7   ar
    26     7     8   ar
    27     8     9   ar
    28     9    10   ar
    29    29    25    1
    30    10     1   ar
    31     9     4   ar
    32    15    11   ar
    33    21    16   ar
@<TRIPOS>MOLECULE
*****
 29 33 0 0 0
SMALL
GASTEIGER

@<TRIPOS>ATOM
      1 C         142.7357  138.5815  165.4622 C.ar    1  UNL1       -0.0207
      2 C         141.5980  137.6829  165.0775 C.ar    1  UNL1       -0.0027
      3 C         141.3478  137.3662  163.6329 C.ar    1  UNL1        0.0188
      4 C         142.2354  137.9481  162.5729 C.ar    1  UNL1        0.0813
      5 N         141.9852  137.6313  161.1282 N.ar    1  UNL1       -0.2438
      6 C         142.8728  138.2132  160.0682 C.ar    1  UNL1        0.0994
      7 C         144.0106  139.1119  160.4529 C.ar    1  UNL1        0.0207
      8 C         144.2608  139.4286  161.8975 C.ar    1  UNL1        0.0031
      9 C         143.3732  138.8467  162.9575 C.ar    1  UNL1        0.0174
     10 C         143.6233  139.1634  164.4022 C.ar    1  UNL1       -0.0027
     11 C         142.6227  137.8965  158.6235 C.ar    1  UNL1        0.1059
     12 C         142.2523  138.8830  157.5559 C.ar    1  UNL1        0.0575
     13 S         142.0997  138.1339  156.2654 S.2     1  UNL1       -0.0659
     14 C         142.3758  136.6844  156.5354 C.ar    1  UNL1        0.1108
     15 N         142.6990  136.5377  157.9928 N.ar    1  UNL1       -0.2368
     16 C         142.3356  135.5762  155.5253 C.ar    1  UNL1        0.0238
     17 C         142.6631  134.1721  155.9390 C.ar    1  UNL1        0.0020
     18 C         142.6230  133.0638  154.9290 C.ar    1  UNL1        0.0001
     19 C         142.2554  133.3597  153.5051 C.ar    1  UNL1        0.0000
     20 C         141.9279  134.7639  153.0913 C.ar    1  UNL1        0.0001
     21 C         141.9681  135.8721  154.1015 C.ar    1  UNL1        0.0020
     22 C         142.9859  138.8983  166.9069 C.3     1  UNL1        0.0437
     23 C         142.5433  140.2146  167.4737 C.3     1  UNL1        0.0768
     24 C         139.3142  139.8056  167.2397 C.3     1  UNL1        0.0173
     25 C         140.1138  140.8968  166.5919 C.3     1  UNL1        0.0576
     26 C         139.5697  141.9916  165.7228 C.3     1  UNL1        0.0174
     27 C         140.7177  142.8563  165.2931 C.3     1  UNL1        0.0187
     28 C         141.9714  142.2958  165.8968 C.3     1  UNL1        0.0721
     29 N         141.5981  141.0848  166.6994 N.3     1  UNL1       -0.2737
@<TRIPOS>BOND
     1    25    24    1
     2    25    26    1
     3    26    27    1
     4    27    28    1
     5    28    29    1
     6    29    23    1
     7    23    22    1
     8    22     1    1
     9     1     2   ar
    10     2     3   ar
    11     3     4   ar
    12     4     5   ar
    13     5     6   ar
    14     6    11    1
    15    11    12   ar
    16    12    13   ar
    17    13    14   ar
    18    14    16    1
    19    16    17   ar
    20    17    18   ar
    21    18    19   ar
    22    19    20   ar
    23    20    21   ar
    24    14    15   ar
    25     6     7   ar
    26     7     8   ar
    27     8     9   ar
    28     9    10   ar
    29    29    25    1
    30    10     1   ar
    31     9     4   ar
    32    15    11   ar
    33    21    16   ar
@<TRIPOS>MOLECULE
*****
 29 33 0 0 0
SMALL
GASTEIGER

@<TRIPOS>ATOM
      1 C         140.2863  143.1335  165.2681 C.ar    1  UNL1       -0.0207
      2 C         139.0364  143.9159  164.9932 C.ar    1  UNL1       -0.0027
      3 C         138.7397  144.3907  163.6016 C.ar    1  UNL1        0.0188
      4 C         139.6928  144.0829  162.4850 C.ar    1  UNL1        0.0813
      5 N         139.3961  144.5577  161.0933 N.ar    1  UNL1       -0.2438
      6 C         140.3492  144.2500  159.9767 C.ar    1  UNL1        0.0994
      7 C         141.5991  143.4675  160.2517 C.ar    1  UNL1        0.0207
      8 C         141.8958  142.9927  161.6433 C.ar    1  UNL1        0.0031
      9 C         140.9427  143.3005  162.7599 C.ar    1  UNL1        0.0174
     10 C         141.2394  142.8257  164.1515 C.ar    1  UNL1       -0.0027
     11 C         140.0525  144.7247  158.5851 C.ar    1  UNL1        0.1059
     12 C         139.6579  143.8607  157.4241 C.ar    1  UNL1        0.0575
     13 S         139.4598  144.7488  156.2316 S.2     1  UNL1       -0.0659
     14 C         139.7320  146.1617  156.6556 C.ar    1  UNL1        0.1108
     15 N         140.0983  146.1468  158.1101 N.ar    1  UNL1       -0.2368
     16 C         139.6519  147.3763  155.7790 C.ar    1  UNL1        0.0238
     17 C         140.3555  147.3929  154.4544 C.ar    1  UNL1        0.0020
     18 C         140.2755  148.6074  153.5778 C.ar    1  UNL1        0.0001
     19 C         139.4918  149.8054  154.0258 C.ar    1  UNL1        0.0000
     20 C         138.7881  149.7888  155.3504 C.ar    1  UNL1        0.0001
     21 C         138.8682  148.5742  156.2270 C.ar    1  UNL1        0.0020
     22 C         140.5830  142.6587  166.6598 C.3     1  UNL1        0.0437
     23 C         140.0330  141.3478  167.1382 C.3     1  UNL1        0.0768
     24 C         142.3410  139.2359  166.2098 C.3     1  UNL1        0.0173
     25 C         140.9142  139.2422  165.7471 C.3     1  UNL1        0.0576
     26 C         140.2978  138.2790  164.7765 C.3     1  UNL1        0.0174
     27 C         138.8558  138.6544  164.6033 C.3     1  UNL1        0.0187
     28 C         138.5811  139.8497  165.4670 C.3     1  UNL1        0.0721
     29 N         139.8533  140.2130  166.1739 N.3     1  UNL1       -0.2737
@<TRIPOS>BOND
     1    25    24    1
     2    25    26    1
     3    26    27    1
     4    27    28    1
     5    28    29    1
     6    29    23    1
     7    23    22    1
     8    22     1    1
     9     1     2   ar
    10     2     3   ar
    11     3     4   ar
    12     4     5   ar
    13     5     6   ar
    14     6    11    1
    15    11    12   ar
    16    12    13   ar
    17    13    14   ar
    18    14    16    1
    19    16    17   ar
    20    17    18   ar
    21    18    19   ar
    22    19    20   ar
    23    20    21   ar
    24    14    15   ar
    25     6     7   ar
    26     7     8   ar
    27     8     9   ar
    28     9    10   ar
    29    29    25    1
    30    10     1   ar
    31     9     4   ar
    32    15    11   ar
    33    21    16   ar
@<TRIPOS>MOLECULE
*****
 29 33 0 0 0
SMALL
GASTEIGER

@<TRIPOS>ATOM
      1 C         144.8026  141.4213  163.1958 C.ar    1  UNL1       -0.0207
      2 C         144.5827  140.0003  163.6226 C.ar    1  UNL1       -0.0027
      3 C         144.0851  138.9886  162.6333 C.ar    1  UNL1        0.0188
      4 C         143.8074  139.3979  161.2172 C.ar    1  UNL1        0.0813
      5 N         143.3097  138.3861  160.2279 N.ar    1  UNL1       -0.2438
      6 C         143.0320  138.7955  158.8118 C.ar    1  UNL1        0.0994
      7 C         143.2520  140.2166  158.3851 C.ar    1  UNL1        0.0207
      8 C         143.7496  141.2283  159.3744 C.ar    1  UNL1        0.0031
      9 C         144.0273  140.8190  160.7905 C.ar    1  UNL1        0.0174
     10 C         144.5249  141.8307  161.7798 C.ar    1  UNL1       -0.0027
     11 C         142.5344  137.7838  157.8225 C.ar    1  UNL1        0.1059
     12 C         141.3928  137.9717  156.8678 C.ar    1  UNL1        0.0575
     13 S         141.2438  136.7105  156.0694 S.2     1  UNL1       -0.0659
     14 C         142.2934  135.7432  156.5308 C.ar    1  UNL1        0.1108
     15 N         143.0910  136.4065  157.6142 N.ar    1  UNL1       -0.2368
     16 C         142.5077  134.3561  156.0016 C.ar    1  UNL1        0.0238
     17 C         143.8380  133.6849  156.1738 C.ar    1  UNL1        0.0020
     18 C         144.0523  132.2978  155.6446 C.ar    1  UNL1        0.0001
     19 C         142.9363  131.5819  154.9431 C.ar    1  UNL1        0.0000
     20 C         141.6059  132.2532  154.7708 C.ar    1  UNL1        0.0001
     21 C         141.3917  133.6403  155.3001 C.ar    1  UNL1        0.0020
     22 C         145.3003  142.4331  164.1852 C.3     1  UNL1        0.0437
     23 C         144.3314  143.1437  165.0831 C.3     1  UNL1        0.0768
     24 C         141.2680  142.0565  165.3717 C.3     1  UNL1        0.0173
     25 C         141.6999  143.2907  164.6368 C.3     1  UNL1        0.0576
     26 C         140.7996  144.2418  163.9055 C.3     1  UNL1        0.0174
     27 C         141.6513  145.3294  163.3207 C.3     1  UNL1        0.0187
     28 C         143.0780  145.0504  163.6908 C.3     1  UNL1        0.0721
     29 N         143.1080  143.7904  164.5041 N.3     1  UNL1       -0.2737
@<TRIPOS>BOND
     1    25    24    1
     2    25    26    1
     3    26    27    1
     4    27    28    1
     5    28    29    1
     6    29    23    1
     7    23    22    1
     8    22     1    1
     9     1     2   ar
    10     2     3   ar
    11     3     4   ar
    12     4     5   ar
    13     5     6   ar
    14     6    11    1
    15    11    12   ar
    16    12    13   ar
    17    13    14   ar
    18    14    16    1
    19    16    17   ar
    20    17    18   ar
    21    18    19   ar
    22    19    20   ar
    23    20    21   ar
    24    14    15   ar
    25     6     7   ar
    26     7     8   ar
    27     8     9   ar
    28     9    10   ar
    29    29    25    1
    30    10     1   ar
    31     9     4   ar
    32    15    11   ar
    33    21    16   ar
