@<TRIPOS>MOLECULE
*****
 30 33 0 0 0
SMALL
GASTEIGER

@<TRIPOS>ATOM
      1 C         141.5591  138.9711  163.6676 C.ar    1  UNL1        0.0878
      2 C         140.8796  138.1541  162.6089 C.ar    1  UNL1        0.0091
      3 C         139.5034  137.6085  162.8506 C.ar    1  UNL1        0.0194
      4 C         138.8068  137.8798  164.1510 C.ar    1  UNL1        0.0844
      5 N         139.4863  138.6967  165.2097 N.ar    1  UNL1       -0.2576
      6 C         138.7896  138.9680  166.5101 C.ar    1  UNL1        0.2672
      7 O         137.4135  138.4224  166.7519 O.2     1  UNL1       -0.2665
      8 C         139.4692  139.7850  167.5688 C.ar    1  UNL1        0.0742
      9 C         138.7726  140.0563  168.8693 C.ar    1  UNL1        0.0063
     10 C         139.4521  140.8733  169.9279 C.ar    1  UNL1        0.0003
     11 C         140.8283  141.4190  169.6862 C.ar    1  UNL1        0.0015
     12 C         141.5077  142.2359  170.7449 C.ar    1  UNL1        0.0000
     13 C         142.8839  142.7816  170.5032 C.ar    1  UNL1        0.0000
     14 C         143.5805  142.5103  169.2027 C.ar    1  UNL1        0.0000
     15 C         142.9010  141.6933  168.1441 C.ar    1  UNL1        0.0015
     16 C         141.5249  141.1477  168.3858 C.ar    1  UNL1        0.0179
     17 C         140.8453  140.3307  167.3271 C.ar    1  UNL1        0.0875
     18 N         141.5420  140.0594  166.0267 N.ar    1  UNL1       -0.2276
     19 C         140.8625  139.2424  164.9680 C.ar    1  UNL1        0.1543
     20 N         143.1578  140.5423  162.3541 N.am    1  UNL1       -0.2994
     21 C         142.9353  139.5168  163.4258 C.2     1  UNL1        0.2488
     22 O         144.0889  139.0369  164.2559 O.2     1  UNL1       -0.2700
     23 H         142.4007  140.8573  161.8093 H       1  UNL1        0.1498
     24 C         144.5341  141.0880  162.1123 C.3     1  UNL1        0.1070
     25 C         144.8447  142.5160  162.4503 C.3     1  UNL1        0.0936
     26 N         143.9053  143.3036  163.3147 N.3     1  UNL1       -0.2712
     27 C         144.7979  143.7421  165.7149 C.3     1  UNL1        0.0188
     28 C         143.8464  143.0420  164.7906 C.3     1  UNL1        0.0722
     29 C         143.0247  144.3527  162.7033 C.3     1  UNL1        0.0722
     30 C         142.1851  145.2323  163.5816 C.3     1  UNL1        0.0188
@<TRIPOS>BOND
     1    27    28    1
     2    28    26    1
     3    26    29    1
     4    29    30    1
     5    26    25    1
     6    25    24    1
     7    24    20    1
     8    20    21   am
     9    21    22    2
    10    21     1    1
    11     1     2   ar
    12     2     3   ar
    13     3     4   ar
    14     4     5   ar
    15     5     6   ar
    16     6     7    2
    17     6     8   ar
    18     8     9   ar
    19     9    10   ar
    20    10    11   ar
    21    11    12   ar
    22    12    13   ar
    23    13    14   ar
    24    14    15   ar
    25    15    16   ar
    26    16    17   ar
    27    17    18   ar
    28    18    19   ar
    29    19     1   ar
    30    19     5   ar
    31    17     8   ar
    32    16    11   ar
    33    20    23    1
@<TRIPOS>MOLECULE
*****
 30 33 0 0 0
SMALL
GASTEIGER

@<TRIPOS>ATOM
      1 C         139.4186  142.9178  161.1552 C.ar    1  UNL1        0.0878
      2 C         139.0887  142.7608  159.7003 C.ar    1  UNL1        0.0091
      3 C         138.4869  141.4806  159.2016 C.ar    1  UNL1        0.0194
      4 C         138.2150  140.3572  160.1577 C.ar    1  UNL1        0.0844
      5 N         138.5448  140.5141  161.6125 N.ar    1  UNL1       -0.2576
      6 C         138.2728  139.3908  162.5686 C.ar    1  UNL1        0.2672
      7 O         137.6710  138.1106  162.0699 O.2     1  UNL1       -0.2665
      8 C         138.6027  139.5478  164.0235 C.ar    1  UNL1        0.0742
      9 C         138.3308  138.4244  164.9796 C.ar    1  UNL1        0.0063
     10 C         138.6606  138.5813  166.4344 C.ar    1  UNL1        0.0003
     11 C         139.2624  139.8616  166.9332 C.ar    1  UNL1        0.0015
     12 C         139.5923  140.0185  168.3880 C.ar    1  UNL1        0.0000
     13 C         140.1941  141.2988  168.8867 C.ar    1  UNL1        0.0000
     14 C         140.4660  142.4221  167.9306 C.ar    1  UNL1        0.0000
     15 C         140.1362  142.2652  166.4758 C.ar    1  UNL1        0.0015
     16 C         139.5344  140.9850  165.9771 C.ar    1  UNL1        0.0179
     17 C         139.2045  140.8280  164.5222 C.ar    1  UNL1        0.0875
     18 N         139.4765  141.9513  163.5661 N.ar    1  UNL1       -0.2276
     19 C         139.1466  141.7944  162.1113 C.ar    1  UNL1        0.1543
     20 N         141.1279  144.1623  162.6649 N.am    1  UNL1       -0.2994
     21 C         140.0204  144.1980  161.6539 C.2     1  UNL1        0.2488
     22 O         139.5147  145.5141  161.1416 O.2     1  UNL1       -0.2700
     23 H         141.4598  143.2986  163.0011 H       1  UNL1        0.1498
     24 C         141.7297  145.4427  163.1636 C.3     1  UNL1        0.1070
     25 C         143.0158  145.4163  163.9352 C.3     1  UNL1        0.0936
     26 N         143.9659  144.2674  163.7704 N.3     1  UNL1       -0.2712
     27 C         144.4485  142.4663  161.9612 C.3     1  UNL1        0.0188
     28 C         144.4674  143.8988  162.4056 C.3     1  UNL1        0.0722
     29 C         144.4145  143.4871  164.9703 C.3     1  UNL1        0.0722
     30 C         143.5697  142.3631  165.4927 C.3     1  UNL1        0.0188
@<TRIPOS>BOND
     1    27    28    1
     2    28    26    1
     3    26    29    1
     4    29    30    1
     5    26    25    1
     6    25    24    1
     7    24    20    1
     8    20    21   am
     9    21    22    2
    10    21     1    1
    11     1     2   ar
    12     2     3   ar
    13     3     4   ar
    14     4     5   ar
    15     5     6   ar
    16     6     7    2
    17     6     8   ar
    18     8     9   ar
    19     9    10   ar
    20    10    11   ar
    21    11    12   ar
    22    12    13   ar
    23    13    14   ar
    24    14    15   ar
    25    15    16   ar
    26    16    17   ar
    27    17    18   ar
    28    18    19   ar
    29    19     1   ar
    30    19     5   ar
    31    17     8   ar
    32    16    11   ar
    33    20    23    1
@<TRIPOS>MOLECULE
*****
 30 33 0 0 0
SMALL
GASTEIGER

@<TRIPOS>ATOM
      1 C         139.5260  140.0710  167.1968 C.ar    1  UNL1        0.0878
      2 C         139.1285  139.8600  168.6277 C.ar    1  UNL1        0.0091
      3 C         139.9690  140.4304  169.7315 C.ar    1  UNL1        0.0194
      4 C         141.2069  141.2117  169.4043 C.ar    1  UNL1        0.0844
      5 N         141.6044  141.4227  167.9735 N.ar    1  UNL1       -0.2576
      6 C         142.8423  142.2041  167.6463 C.ar    1  UNL1        0.2672
      7 O         143.6828  142.7744  168.7501 O.2     1  UNL1       -0.2665
      8 C         143.2398  142.4151  166.2154 C.ar    1  UNL1        0.0742
      9 C         144.4777  143.1964  165.8882 C.ar    1  UNL1        0.0063
     10 C         144.8752  143.4074  164.4574 C.ar    1  UNL1        0.0003
     11 C         144.0347  142.8370  163.3535 C.ar    1  UNL1        0.0015
     12 C         144.4322  143.0481  161.9226 C.ar    1  UNL1        0.0000
     13 C         143.5917  142.4777  160.8189 C.ar    1  UNL1        0.0000
     14 C         142.3538  141.6964  161.1460 C.ar    1  UNL1        0.0000
     15 C         141.9563  141.4854  162.5769 C.ar    1  UNL1        0.0015
     16 C         142.7968  142.0557  163.6807 C.ar    1  UNL1        0.0179
     17 C         142.3993  141.8447  165.1116 C.ar    1  UNL1        0.0875
     18 N         141.1614  141.0634  165.4388 N.ar    1  UNL1       -0.2276
     19 C         140.7639  140.8524  166.8696 C.ar    1  UNL1        0.1543
     20 N         138.9944  139.8377  164.6644 N.am    1  UNL1       -0.2994
     21 C         138.6855  139.5007  166.0930 C.2     1  UNL1        0.2488
     22 O         137.5361  138.5933  166.4179 O.2     1  UNL1       -0.2700
     23 H         139.7488  140.4332  164.4511 H       1  UNL1        0.1498
     24 C         138.1539  139.2673  163.5606 C.3     1  UNL1        0.1070
     25 C         138.6082  138.0382  162.8306 C.3     1  UNL1        0.0936
     26 N         140.0619  137.8485  162.5137 N.3     1  UNL1       -0.2712
     27 C         139.7293  139.0348  160.2263 C.3     1  UNL1        0.0188
     28 C         140.5991  138.2673  161.1773 C.3     1  UNL1        0.0722
     29 C         140.9785  137.2399  163.5332 C.3     1  UNL1        0.0722
     30 C         142.1531  138.0195  164.0460 C.3     1  UNL1        0.0188
@<TRIPOS>BOND
     1    27    28    1
     2    28    26    1
     3    26    29    1
     4    29    30    1
     5    26    25    1
     6    25    24    1
     7    24    20    1
     8    20    21   am
     9    21    22    2
    10    21     1    1
    11     1     2   ar
    12     2     3   ar
    13     3     4   ar
    14     4     5   ar
    15     5     6   ar
    16     6     7    2
    17     6     8   ar
    18     8     9   ar
    19     9    10   ar
    20    10    11   ar
    21    11    12   ar
    22    12    13   ar
    23    13    14   ar
    24    14    15   ar
    25    15    16   ar
    26    16    17   ar
    27    17    18   ar
    28    18    19   ar
    29    19     1   ar
    30    19     5   ar
    31    17     8   ar
    32    16    11   ar
    33    20    23    1
@<TRIPOS>MOLECULE
*****
 30 33 0 0 0
SMALL
GASTEIGER

@<TRIPOS>ATOM
      1 C         142.7508  141.8077  163.5059 C.ar    1  UNL1        0.0878
      2 C         143.3866  141.1642  162.3093 C.ar    1  UNL1        0.0091
      3 C         143.9884  139.7951  162.4252 C.ar    1  UNL1        0.0194
      4 C         143.9546  139.0696  163.7376 C.ar    1  UNL1        0.0844
      5 N         143.3189  139.7130  164.9341 N.ar    1  UNL1       -0.2576
      6 C         143.2851  138.9874  166.2465 C.ar    1  UNL1        0.2672
      7 O         143.8870  137.6184  166.3624 O.2     1  UNL1       -0.2665
      8 C         142.6493  139.6309  167.4431 C.ar    1  UNL1        0.0742
      9 C         142.6155  138.9053  168.7555 C.ar    1  UNL1        0.0063
     10 C         141.9798  139.5488  169.9521 C.ar    1  UNL1        0.0003
     11 C         141.3778  140.9179  169.8363 C.ar    1  UNL1        0.0015
     12 C         140.7421  141.5613  171.0328 C.ar    1  UNL1        0.0000
     13 C         140.1402  142.9303  170.9170 C.ar    1  UNL1        0.0000
     14 C         140.1740  143.6559  169.6046 C.ar    1  UNL1        0.0000
     15 C         140.8098  143.0125  168.4081 C.ar    1  UNL1        0.0015
     16 C         141.4117  141.6434  168.5239 C.ar    1  UNL1        0.0179
     17 C         142.0474  140.9999  167.3273 C.ar    1  UNL1        0.0875
     18 N         142.0812  141.7255  166.0149 N.ar    1  UNL1       -0.2276
     19 C         142.7170  141.0821  164.8183 C.ar    1  UNL1        0.1543
     20 N         141.1214  143.4573  162.3340 N.am    1  UNL1       -0.2994
     21 C         142.1489  143.1767  163.3901 C.2     1  UNL1        0.2488
     22 O         142.5745  144.2652  164.3304 O.2     1  UNL1       -0.2700
     23 H         140.8420  142.7430  161.7168 H       1  UNL1        0.1498
     24 C         140.5195  144.8264  162.2182 C.3     1  UNL1        0.1070
     25 C         139.0491  145.0207  162.4424 C.3     1  UNL1        0.0936
     26 N         138.2465  143.9517  163.1229 N.3     1  UNL1       -0.2712
     27 C         138.8481  144.7980  165.5045 C.3     1  UNL1        0.0188
     28 C         137.9122  144.0777  164.5797 C.3     1  UNL1        0.0722
     29 C         137.7783  142.7567  162.3465 C.3     1  UNL1        0.0722
     30 C         138.2371  141.3826  162.7358 C.3     1  UNL1        0.0188
@<TRIPOS>BOND
     1    27    28    1
     2    28    26    1
     3    26    29    1
     4    29    30    1
     5    26    25    1
     6    25    24    1
     7    24    20    1
     8    20    21   am
     9    21    22    2
    10    21     1    1
    11     1     2   ar
    12     2     3   ar
    13     3     4   ar
    14     4     5   ar
    15     5     6   ar
    16     6     7    2
    17     6     8   ar
    18     8     9   ar
    19     9    10   ar
    20    10    11   ar
    21    11    12   ar
    22    12    13   ar
    23    13    14   ar
    24    14    15   ar
    25    15    16   ar
    26    16    17   ar
    27    17    18   ar
    28    18    19   ar
    29    19     1   ar
    30    19     5   ar
    31    17     8   ar
    32    16    11   ar
    33    20    23    1
@<TRIPOS>MOLECULE
*****
 30 33 0 0 0
SMALL
GASTEIGER

@<TRIPOS>ATOM
      1 C         142.0680  141.9947  162.3940 C.ar    1  UNL1        0.0878
      2 C         142.9524  142.5854  161.3361 C.ar    1  UNL1        0.0091
      3 C         144.1900  143.3373  161.7272 C.ar    1  UNL1        0.0194
      4 C         144.5433  143.4984  163.1761 C.ar    1  UNL1        0.0844
      5 N         143.6590  142.9077  164.2339 N.ar    1  UNL1       -0.2576
      6 C         144.0122  143.0689  165.6828 C.ar    1  UNL1        0.2672
      7 O         145.2498  143.8207  166.0738 O.2     1  UNL1       -0.2665
      8 C         143.1278  142.4781  166.7406 C.ar    1  UNL1        0.0742
      9 C         143.4811  142.6392  168.1894 C.ar    1  UNL1        0.0063
     10 C         142.5968  142.0485  169.2472 C.ar    1  UNL1        0.0003
     11 C         141.3591  141.2966  168.8562 C.ar    1  UNL1        0.0015
     12 C         140.4748  140.7059  169.9140 C.ar    1  UNL1        0.0000
     13 C         139.2372  139.9540  169.5229 C.ar    1  UNL1        0.0000
     14 C         138.8839  139.7929  168.0740 C.ar    1  UNL1        0.0000
     15 C         139.7682  140.3836  167.0162 C.ar    1  UNL1        0.0015
     16 C         141.0058  141.1355  167.4073 C.ar    1  UNL1        0.0179
     17 C         141.8902  141.7262  166.3495 C.ar    1  UNL1        0.0875
     18 N         141.5369  141.5651  164.9006 N.ar    1  UNL1       -0.2276
     19 C         142.4213  142.1558  163.8428 C.ar    1  UNL1        0.1543
     20 N         140.9407  139.9912  161.1835 N.am    1  UNL1       -0.2994
     21 C         140.8304  141.2428  162.0029 C.2     1  UNL1        0.2488
     22 O         139.4824  141.7425  162.4312 O.2     1  UNL1       -0.2700
     23 H         141.8253  139.6632  160.9024 H       1  UNL1        0.1498
     24 C         139.7030  139.2393  160.7924 C.3     1  UNL1        0.1070
     25 C         139.2797  138.0323  161.5759 C.3     1  UNL1        0.0936
     26 N         139.7292  137.8652  162.9972 N.3     1  UNL1       -0.2712
     27 C         142.0781  138.0641  164.0896 C.3     1  UNL1        0.0188
     28 C         141.0781  137.2795  163.2932 C.3     1  UNL1        0.0722
     29 C         138.8300  138.2838  164.1223 C.3     1  UNL1        0.0722
     30 C         138.6267  137.3746  165.2980 C.3     1  UNL1        0.0188
@<TRIPOS>BOND
     1    27    28    1
     2    28    26    1
     3    26    29    1
     4    29    30    1
     5    26    25    1
     6    25    24    1
     7    24    20    1
     8    20    21   am
     9    21    22    2
    10    21     1    1
    11     1     2   ar
    12     2     3   ar
    13     3     4   ar
    14     4     5   ar
    15     5     6   ar
    16     6     7    2
    17     6     8   ar
    18     8     9   ar
    19     9    10   ar
    20    10    11   ar
    21    11    12   ar
    22    12    13   ar
    23    13    14   ar
    24    14    15   ar
    25    15    16   ar
    26    16    17   ar
    27    17    18   ar
    28    18    19   ar
    29    19     1   ar
    30    19     5   ar
    31    17     8   ar
    32    16    11   ar
    33    20    23    1
@<TRIPOS>MOLECULE
*****
 30 33 0 0 0
SMALL
GASTEIGER

@<TRIPOS>ATOM
      1 C         143.1668  142.1813  167.1071 C.ar    1  UNL1        0.0878
      2 C         143.3521  142.6817  168.5090 C.ar    1  UNL1        0.0091
      3 C         142.3982  142.2616  169.5876 C.ar    1  UNL1        0.0194
      4 C         141.2588  141.3411  169.2643 C.ar    1  UNL1        0.0844
      5 N         141.0735  140.8406  167.8625 N.ar    1  UNL1       -0.2576
      6 C         139.9341  139.9201  167.5393 C.ar    1  UNL1        0.2672
      7 O         138.9802  139.4999  168.6179 O.2     1  UNL1       -0.2665
      8 C         139.7488  139.4196  166.1374 C.ar    1  UNL1        0.0742
      9 C         138.6095  138.4990  165.8142 C.ar    1  UNL1        0.0063
     10 C         138.4241  137.9986  164.4123 C.ar    1  UNL1        0.0003
     11 C         139.3781  138.4187  163.3337 C.ar    1  UNL1        0.0015
     12 C         139.1927  137.9182  161.9318 C.ar    1  UNL1        0.0000
     13 C         140.1467  138.3383  160.8532 C.ar    1  UNL1        0.0000
     14 C         141.2860  139.2589  161.1765 C.ar    1  UNL1        0.0000
     15 C         141.4714  139.7594  162.5783 C.ar    1  UNL1        0.0015
     16 C         140.5174  139.3393  163.6569 C.ar    1  UNL1        0.0179
     17 C         140.7028  139.8397  165.0588 C.ar    1  UNL1        0.0875
     18 N         141.8421  140.7603  165.3820 N.ar    1  UNL1       -0.2276
     19 C         142.0275  141.2607  166.7838 C.ar    1  UNL1        0.1543
     20 N         144.3187  141.7324  164.8220 N.am    1  UNL1       -0.2994
     21 C         144.1208  142.6014  166.0285 C.2     1  UNL1        0.2488
     22 O         144.8769  143.8906  166.1563 O.2     1  UNL1       -0.2700
     23 H         143.8224  140.8862  164.7380 H       1  UNL1        0.1498
     24 C         145.2727  142.1525  163.7434 C.3     1  UNL1        0.1070
     25 C         144.7759  142.3665  162.3443 C.3     1  UNL1        0.0936
     26 N         143.9103  143.5501  162.0285 N.3     1  UNL1       -0.2712
     27 C         141.6272  142.9761  160.9296 C.3     1  UNL1        0.0188
     28 C         143.0184  143.5266  160.8228 C.3     1  UNL1        0.0722
     29 C         143.9367  144.7572  162.9185 C.3     1  UNL1        0.0722
     30 C         142.7052  145.1581  163.6754 C.3     1  UNL1        0.0188
@<TRIPOS>BOND
     1    27    28    1
     2    28    26    1
     3    26    29    1
     4    29    30    1
     5    26    25    1
     6    25    24    1
     7    24    20    1
     8    20    21   am
     9    21    22    2
    10    21     1    1
    11     1     2   ar
    12     2     3   ar
    13     3     4   ar
    14     4     5   ar
    15     5     6   ar
    16     6     7    2
    17     6     8   ar
    18     8     9   ar
    19     9    10   ar
    20    10    11   ar
    21    11    12   ar
    22    12    13   ar
    23    13    14   ar
    24    14    15   ar
    25    15    16   ar
    26    16    17   ar
    27    17    18   ar
    28    18    19   ar
    29    19     1   ar
    30    19     5   ar
    31    17     8   ar
    32    16    11   ar
    33    20    23    1
@<TRIPOS>MOLECULE
*****
 30 33 0 0 0
SMALL
GASTEIGER

@<TRIPOS>ATOM
      1 C         143.1346  138.7834  162.4672 C.ar    1  UNL1        0.0878
      2 C         143.6691  137.7646  161.5047 C.ar    1  UNL1        0.0091
      3 C         143.0217  137.5881  160.1632 C.ar    1  UNL1        0.0194
      4 C         141.8398  138.4304  159.7841 C.ar    1  UNL1        0.0844
      5 N         141.3053  139.4492  160.7466 N.ar    1  UNL1       -0.2576
      6 C         140.1235  140.2915  160.3675 C.ar    1  UNL1        0.2672
      7 O         139.4761  140.1150  159.0260 O.2     1  UNL1       -0.2665
      8 C         139.5890  141.3103  161.3300 C.ar    1  UNL1        0.0742
      9 C         138.4071  142.1526  160.9510 C.ar    1  UNL1        0.0063
     10 C         137.8726  143.1714  161.9134 C.ar    1  UNL1        0.0003
     11 C         138.5200  143.3479  163.2550 C.ar    1  UNL1        0.0015
     12 C         137.9855  144.3667  164.2175 C.ar    1  UNL1        0.0000
     13 C         138.6329  144.5432  165.5590 C.ar    1  UNL1        0.0000
     14 C         139.8148  143.7009  165.9380 C.ar    1  UNL1        0.0000
     15 C         140.3493  142.6821  164.9756 C.ar    1  UNL1        0.0015
     16 C         139.7019  142.5056  163.6341 C.ar    1  UNL1        0.0179
     17 C         140.2364  141.4868  162.6716 C.ar    1  UNL1        0.0875
     18 N         141.4182  140.6445  163.0506 N.ar    1  UNL1       -0.2276
     19 C         141.9527  139.6257  162.0882 C.ar    1  UNL1        0.1543
     20 N         143.0913  138.4666  165.0455 N.am    1  UNL1       -0.2994
     21 C         143.7820  138.9599  163.8087 C.2     1  UNL1        0.2488
     22 O         145.1201  139.6297  163.9135 O.2     1  UNL1       -0.2700
     23 H         142.2131  138.0270  164.9768 H       1  UNL1        0.1498
     24 C         143.7388  138.6431  166.3871 C.3     1  UNL1        0.1070
     25 C         142.9069  139.0167  167.5780 C.3     1  UNL1        0.0936
     26 N         142.0330  140.2349  167.5301 N.3     1  UNL1       -0.2712
     27 C         139.6861  140.5568  168.5970 C.3     1  UNL1        0.0188
     28 C         140.5421  140.0861  167.4588 C.3     1  UNL1        0.0722
     29 C         142.6500  141.6019  167.5535 C.3     1  UNL1        0.0722
     30 C         143.1602  142.1725  168.8435 C.3     1  UNL1        0.0188
@<TRIPOS>BOND
     1    27    28    1
     2    28    26    1
     3    26    29    1
     4    29    30    1
     5    26    25    1
     6    25    24    1
     7    24    20    1
     8    20    21   am
     9    21    22    2
    10    21     1    1
    11     1     2   ar
    12     2     3   ar
    13     3     4   ar
    14     4     5   ar
    15     5     6   ar
    16     6     7    2
    17     6     8   ar
    18     8     9   ar
    19     9    10   ar
    20    10    11   ar
    21    11    12   ar
    22    12    13   ar
    23    13    14   ar
    24    14    15   ar
    25    15    16   ar
    26    16    17   ar
    27    17    18   ar
    28    18    19   ar
    29    19     1   ar
    30    19     5   ar
    31    17     8   ar
    32    16    11   ar
    33    20    23    1
@<TRIPOS>MOLECULE
*****
 30 33 0 0 0
SMALL
GASTEIGER

@<TRIPOS>ATOM
      1 C         142.3954  143.8263  157.2661 C.ar    1  UNL1        0.0878
      2 C         141.5315  144.4029  156.1838 C.ar    1  UNL1        0.0091
      3 C         140.3831  145.3001  156.5389 C.ar    1  UNL1        0.0194
      4 C         140.0985  145.6208  157.9763 C.ar    1  UNL1        0.0844
      5 N         140.9623  145.0442  159.0586 N.ar    1  UNL1       -0.2576
      6 C         140.6777  145.3649  160.4960 C.ar    1  UNL1        0.2672
      7 O         139.5293  146.2621  160.8511 O.2     1  UNL1       -0.2665
      8 C         141.5415  144.7883  161.5783 C.ar    1  UNL1        0.0742
      9 C         141.2569  145.1089  163.0158 C.ar    1  UNL1        0.0063
     10 C         142.1207  144.5324  164.0981 C.ar    1  UNL1        0.0003
     11 C         143.2692  143.6351  163.7430 C.ar    1  UNL1        0.0015
     12 C         144.1329  143.0585  164.8253 C.ar    1  UNL1        0.0000
     13 C         145.2813  142.1613  164.4701 C.ar    1  UNL1        0.0000
     14 C         145.5659  141.8406  163.0327 C.ar    1  UNL1        0.0000
     15 C         144.7021  142.4172  161.9504 C.ar    1  UNL1        0.0015
     16 C         143.5538  143.3144  162.3055 C.ar    1  UNL1        0.0179
     17 C         142.6899  143.8910  161.2232 C.ar    1  UNL1        0.0875
     18 N         142.9745  143.5704  159.7858 N.ar    1  UNL1       -0.2276
     19 C         142.1107  144.1469  158.7035 C.ar    1  UNL1        0.1543
     20 N         144.8579  143.0770  157.6189 N.am    1  UNL1       -0.2994
     21 C         143.5437  142.9290  156.9110 C.2     1  UNL1        0.2488
     22 O         143.3780  141.8838  155.8479 O.2     1  UNL1       -0.2700
     23 H         144.9667  143.7630  158.3166 H       1  UNL1        0.1498
     24 C         146.0063  142.1797  157.2637 C.3     1  UNL1        0.1070
     25 C         147.2441  142.7560  156.6427 C.3     1  UNL1        0.0936
     26 N         147.4361  142.6939  155.1563 N.3     1  UNL1       -0.2712
     27 C         147.1088  144.8301  153.7143 C.3     1  UNL1        0.0188
     28 C         146.5814  143.5338  154.2540 C.3     1  UNL1        0.0722
     29 C         148.4828  141.7921  154.5723 C.3     1  UNL1        0.0722
     30 C         149.8518  141.7380  155.1831 C.3     1  UNL1        0.0188
@<TRIPOS>BOND
     1    27    28    1
     2    28    26    1
     3    26    29    1
     4    29    30    1
     5    26    25    1
     6    25    24    1
     7    24    20    1
     8    20    21   am
     9    21    22    2
    10    21     1    1
    11     1     2   ar
    12     2     3   ar
    13     3     4   ar
    14     4     5   ar
    15     5     6   ar
    16     6     7    2
    17     6     8   ar
    18     8     9   ar
    19     9    10   ar
    20    10    11   ar
    21    11    12   ar
    22    12    13   ar
    23    13    14   ar
    24    14    15   ar
    25    15    16   ar
    26    16    17   ar
    27    17    18   ar
    28    18    19   ar
    29    19     1   ar
    30    19     5   ar
    31    17     8   ar
    32    16    11   ar
    33    20    23    1
@<TRIPOS>MOLECULE
*****
 30 33 0 0 0
SMALL
GASTEIGER

@<TRIPOS>ATOM
      1 C         143.1338  140.6682  162.2186 C.ar    1  UNL1        0.0878
      2 C         144.3217  141.2873  161.5434 C.ar    1  UNL1        0.0091
      3 C         145.2058  142.2336  162.3003 C.ar    1  UNL1        0.0194
      4 C         144.9021  142.5607  163.7324 C.ar    1  UNL1        0.0844
      5 N         143.7143  141.9416  164.4075 N.ar    1  UNL1       -0.2576
      6 C         143.4107  142.2687  165.8396 C.ar    1  UNL1        0.2672
      7 O         144.2948  143.2149  166.5965 O.2     1  UNL1       -0.2665
      8 C         142.2228  141.6495  166.5147 C.ar    1  UNL1        0.0742
      9 C         141.9192  141.9766  167.9468 C.ar    1  UNL1        0.0063
     10 C         140.7314  141.3575  168.6219 C.ar    1  UNL1        0.0003
     11 C         139.8472  140.4112  167.8650 C.ar    1  UNL1        0.0015
     12 C         138.6594  139.7921  168.5401 C.ar    1  UNL1        0.0000
     13 C         137.7753  138.8459  167.7832 C.ar    1  UNL1        0.0000
     14 C         138.0790  138.5188  166.3512 C.ar    1  UNL1        0.0000
     15 C         139.2668  139.1379  165.6760 C.ar    1  UNL1        0.0015
     16 C         140.1509  140.0841  166.4329 C.ar    1  UNL1        0.0179
     17 C         141.3387  140.7033  165.7578 C.ar    1  UNL1        0.0875
     18 N         141.6424  140.3762  164.3257 N.ar    1  UNL1       -0.2276
     19 C         142.8302  140.9953  163.6506 C.ar    1  UNL1        0.1543
     20 N         141.2839  140.2504  160.4428 N.am    1  UNL1       -0.2994
     21 C         142.2497  139.7219  161.4616 C.2     1  UNL1        0.2488
     22 O         142.3314  138.2472  161.7235 O.2     1  UNL1       -0.2700
     23 H         141.2303  141.2183  160.2709 H       1  UNL1        0.1498
     24 C         140.3998  139.3041  159.6859 C.3     1  UNL1        0.1070
     25 C         138.9093  139.4627  159.7423 C.3     1  UNL1        0.0936
     26 N         138.2201  139.6084  161.0665 N.3     1  UNL1       -0.2712
     27 C         138.9414  137.6780  162.6487 C.3     1  UNL1        0.0188
     28 C         137.8749  138.3899  161.8704 C.3     1  UNL1        0.0722
     29 C         137.8761  140.9725  161.5869 C.3     1  UNL1        0.0722
     30 C         137.4648  141.1472  163.0189 C.3     1  UNL1        0.0188
@<TRIPOS>BOND
     1    27    28    1
     2    28    26    1
     3    26    29    1
     4    29    30    1
     5    26    25    1
     6    25    24    1
     7    24    20    1
     8    20    21   am
     9    21    22    2
    10    21     1    1
    11     1     2   ar
    12     2     3   ar
    13     3     4   ar
    14     4     5   ar
    15     5     6   ar
    16     6     7    2
    17     6     8   ar
    18     8     9   ar
    19     9    10   ar
    20    10    11   ar
    21    11    12   ar
    22    12    13   ar
    23    13    14   ar
    24    14    15   ar
    25    15    16   ar
    26    16    17   ar
    27    17    18   ar
    28    18    19   ar
    29    19     1   ar
    30    19     5   ar
    31    17     8   ar
    32    16    11   ar
    33    20    23    1
