@<TRIPOS>MOLECULE
*****
 25 27 0 0 0
SMALL
GASTEIGER

@<TRIPOS>ATOM
      1 C         143.6980  144.7136  163.2102 C.3     1  UNL1        0.0532
      2 C         142.5334  144.1882  163.9962 C.ar    1  UNL1        0.0761
      3 N         142.7509  143.1475  165.0543 N.ar    1  UNL1       -0.2298
      4 C         141.5864  142.6221  165.8402 C.ar    1  UNL1        0.1650
      5 N         140.2042  143.1373  165.5681 N.ar    1  UNL1       -0.1918
      6 C         139.9867  144.1780  164.5100 C.ar    1  UNL1        0.2382
      7 C         141.1512  144.7034  163.7240 C.ar    1  UNL1        0.1242
      8 CL        140.9336  145.7442  162.6659 Cl      1  UNL1       -0.0761
      9 C         141.8040  141.5813  166.8984 C.ar    1  UNL1        0.0360
     10 C         141.2524  141.7877  168.2779 C.ar    1  UNL1        0.0054
     11 C         141.4700  140.7470  169.3360 C.ar    1  UNL1        0.0297
     12 C         142.2392  139.4999  169.0146 C.ar    1  UNL1        0.1401
     13 F         142.4568  138.4593  170.0727 F       1  UNL1       -0.2042
     14 C         142.7908  139.2936  167.6350 C.ar    1  UNL1        0.0297
     15 C         142.5732  140.3344  166.5769 C.ar    1  UNL1        0.0054
     16 O         138.6044  144.6934  164.2378 O.3     1  UNL1       -0.4596
     17 C         137.7499  144.0343  163.1960 C.3     1  UNL1        0.2086
     18 C         138.1041  142.6670  162.6906 C.3     1  UNL1        0.0647
     19 C         137.2997  141.4765  163.1215 C.3     1  UNL1        0.0759
     20 N         137.9847  140.2894  163.7309 N.3     1  UNL1       -0.2726
     21 C         138.2895  140.2715  165.1996 C.3     1  UNL1        0.0721
     22 C         138.9745  139.0843  165.8090 C.3     1  UNL1        0.0174
     23 C         139.3547  137.9150  164.9498 C.3     1  UNL1        0.0029
     24 C         139.0500  137.9329  163.4812 C.3     1  UNL1        0.0174
     25 C         138.3650  139.1201  162.8717 C.3     1  UNL1        0.0721
@<TRIPOS>BOND
     1     1     2    1
     2     2     3   ar
     3     3     4   ar
     4     4     9    1
     5     9    10   ar
     6    10    11   ar
     7    11    12   ar
     8    12    13    1
     9    12    14   ar
    10    14    15   ar
    11     4     5   ar
    12     5     6   ar
    13     6    16    1
    14    16    17    1
    15    17    18    1
    16    18    19    1
    17    19    20    1
    18    20    21    1
    19    21    22    1
    20    22    23    1
    21    23    24    1
    22    24    25    1
    23     6     7   ar
    24     7     8    1
    25     7     2   ar
    26    15     9   ar
    27    25    20    1
@<TRIPOS>MOLECULE
*****
 25 27 0 0 0
SMALL
GASTEIGER

@<TRIPOS>ATOM
      1 C         140.3053  142.5478  170.7207 C.3     1  UNL1        0.0532
      2 C         140.3252  141.9455  169.3470 C.ar    1  UNL1        0.0761
      3 N         141.2012  142.5356  168.2820 N.ar    1  UNL1       -0.2298
      4 C         141.2211  141.9333  166.9083 C.ar    1  UNL1        0.1650
      5 N         140.3650  140.7409  166.5998 N.ar    1  UNL1       -0.1918
      6 C         139.4891  140.1507  167.6649 C.ar    1  UNL1        0.2382
      7 C         139.4692  140.7530  169.0385 C.ar    1  UNL1        0.1242
      8 CL        138.5932  140.1629  170.1036 Cl      1  UNL1       -0.0761
      9 C         142.0971  142.5235  165.8432 C.ar    1  UNL1        0.0360
     10 C         141.5079  142.9192  164.5218 C.ar    1  UNL1        0.0054
     11 C         142.3838  143.5094  163.4567 C.ar    1  UNL1        0.0297
     12 C         143.8490  143.7038  163.7130 C.ar    1  UNL1        0.1401
     13 F         144.7249  144.2940  162.6480 F       1  UNL1       -0.2042
     14 C         144.4381  143.3081  165.0345 C.ar    1  UNL1        0.0297
     15 C         143.5621  142.7179  166.0996 C.ar    1  UNL1        0.0054
     16 O         138.6330  138.9582  167.3564 O.3     1  UNL1       -0.4596
     17 C         138.3675  138.5741  165.9309 C.3     1  UNL1        0.2086
     18 C         139.3621  137.7374  165.1819 C.3     1  UNL1        0.0647
     19 C         140.1127  138.3227  164.0227 C.3     1  UNL1        0.0759
     20 N         141.5525  138.7122  164.1814 N.3     1  UNL1       -0.2726
     21 C         142.2248  139.5439  163.1295 C.3     1  UNL1        0.0721
     22 C         143.6647  139.9334  163.2881 C.3     1  UNL1        0.0174
     23 C         144.4323  139.4911  164.4986 C.3     1  UNL1        0.0029
     24 C         143.7601  138.6594  165.5504 C.3     1  UNL1        0.0174
     25 C         142.3202  138.2699  165.3918 C.3     1  UNL1        0.0721
@<TRIPOS>BOND
     1     1     2    1
     2     2     3   ar
     3     3     4   ar
     4     4     9    1
     5     9    10   ar
     6    10    11   ar
     7    11    12   ar
     8    12    13    1
     9    12    14   ar
    10    14    15   ar
    11     4     5   ar
    12     5     6   ar
    13     6    16    1
    14    16    17    1
    15    17    18    1
    16    18    19    1
    17    19    20    1
    18    20    21    1
    19    21    22    1
    20    22    23    1
    21    23    24    1
    22    24    25    1
    23     6     7   ar
    24     7     8    1
    25     7     2   ar
    26    15     9   ar
    27    25    20    1
@<TRIPOS>MOLECULE
*****
 25 27 0 0 0
SMALL
GASTEIGER

@<TRIPOS>ATOM
      1 C         138.9151  144.8160  164.7478 C.3     1  UNL1        0.0532
      2 C         139.0673  143.3706  165.1188 C.ar    1  UNL1        0.0761
      3 N         139.9614  142.9787  166.2576 N.ar    1  UNL1       -0.2298
      4 C         140.1136  141.5333  166.6286 C.ar    1  UNL1        0.1650
      5 N         139.3717  140.4798  165.8607 N.ar    1  UNL1       -0.1918
      6 C         138.4776  140.8716  164.7219 C.ar    1  UNL1        0.2382
      7 C         138.3254  142.3170  164.3509 C.ar    1  UNL1        0.1242
      8 CL        137.4312  142.7089  163.2121 Cl      1  UNL1       -0.0761
      9 C         141.0078  141.1414  167.7675 C.ar    1  UNL1        0.0360
     10 C         142.2263  141.9585  168.0797 C.ar    1  UNL1        0.0054
     11 C         143.1205  141.5667  169.2185 C.ar    1  UNL1        0.0297
     12 C         142.7961  140.3578  170.0451 C.ar    1  UNL1        0.1401
     13 F         143.6903  139.9660  171.1840 F       1  UNL1       -0.2042
     14 C         141.5776  139.5407  169.7329 C.ar    1  UNL1        0.0297
     15 C         140.6834  139.9325  168.5940 C.ar    1  UNL1        0.0054
     16 O         137.7357  139.8181  163.9540 O.3     1  UNL1       -0.4596
     17 C         138.3685  139.1799  162.7531 C.3     1  UNL1        0.2086
     18 C         139.0004  137.8244  162.8696 C.3     1  UNL1        0.0647
     19 C         140.4798  137.6677  162.6781 C.3     1  UNL1        0.0759
     20 N         141.4338  138.3878  163.5843 N.3     1  UNL1       -0.2726
     21 C         141.8585  137.7590  164.8783 C.3     1  UNL1        0.0721
     22 C         142.8125  138.4792  165.7845 C.3     1  UNL1        0.0174
     23 C         143.3417  139.8281  165.3969 C.3     1  UNL1        0.0029
     24 C         142.9170  140.4569  164.1030 C.3     1  UNL1        0.0174
     25 C         141.9630  139.7368  163.1967 C.3     1  UNL1        0.0721
@<TRIPOS>BOND
     1     1     2    1
     2     2     3   ar
     3     3     4   ar
     4     4     9    1
     5     9    10   ar
     6    10    11   ar
     7    11    12   ar
     8    12    13    1
     9    12    14   ar
    10    14    15   ar
    11     4     5   ar
    12     5     6   ar
    13     6    16    1
    14    16    17    1
    15    17    18    1
    16    18    19    1
    17    19    20    1
    18    20    21    1
    19    21    22    1
    20    22    23    1
    21    23    24    1
    22    24    25    1
    23     6     7   ar
    24     7     8    1
    25     7     2   ar
    26    15     9   ar
    27    25    20    1
@<TRIPOS>MOLECULE
*****
 25 27 0 0 0
SMALL
GASTEIGER

@<TRIPOS>ATOM
      1 C         139.5408  140.0043  168.5222 C.3     1  UNL1        0.0532
      2 C         139.6390  140.3086  167.0567 C.ar    1  UNL1        0.0761
      3 N         140.5844  141.3676  166.5723 N.ar    1  UNL1       -0.2298
      4 C         140.6827  141.6719  165.1068 C.ar    1  UNL1        0.1650
      5 N         139.8355  140.9173  164.1257 N.ar    1  UNL1       -0.1918
      6 C         138.8900  139.8583  164.6100 C.ar    1  UNL1        0.2382
      7 C         138.7918  139.5540  166.0755 C.ar    1  UNL1        0.1242
      8 CL        137.8463  138.4949  166.5599 Cl      1  UNL1       -0.0761
      9 C         141.6282  142.7310  164.6224 C.ar    1  UNL1        0.0360
     10 C         141.1327  143.8241  163.7226 C.ar    1  UNL1        0.0054
     11 C         142.0781  144.8831  163.2383 C.ar    1  UNL1        0.0297
     12 C         143.5191  144.8490  163.6537 C.ar    1  UNL1        0.1401
     13 F         144.4645  145.9080  163.1694 F       1  UNL1       -0.2042
     14 C         144.0146  143.7559  164.5535 C.ar    1  UNL1        0.0297
     15 C         143.0691  142.6969  165.0379 C.ar    1  UNL1        0.0054
     16 O         138.0428  139.1036  163.6289 O.3     1  UNL1       -0.4596
     17 C         138.6113  137.9223  162.9000 C.3     1  UNL1        0.2086
     18 C         139.9205  137.3323  163.3337 C.3     1  UNL1        0.0647
     19 C         141.1912  137.7429  162.6505 C.3     1  UNL1        0.0759
     20 N         142.3369  138.2785  163.4569 N.3     1  UNL1       -0.2726
     21 C         142.2728  138.2601  164.9555 C.3     1  UNL1        0.0721
     22 C         143.4185  138.7958  165.7618 C.3     1  UNL1        0.0174
     23 C         144.6284  139.3499  165.0697 C.3     1  UNL1        0.0029
     24 C         144.6926  139.3683  163.5712 C.3     1  UNL1        0.0174
     25 C         143.5468  138.8327  162.7648 C.3     1  UNL1        0.0721
@<TRIPOS>BOND
     1     1     2    1
     2     2     3   ar
     3     3     4   ar
     4     4     9    1
     5     9    10   ar
     6    10    11   ar
     7    11    12   ar
     8    12    13    1
     9    12    14   ar
    10    14    15   ar
    11     4     5   ar
    12     5     6   ar
    13     6    16    1
    14    16    17    1
    15    17    18    1
    16    18    19    1
    17    19    20    1
    18    20    21    1
    19    21    22    1
    20    22    23    1
    21    23    24    1
    22    24    25    1
    23     6     7   ar
    24     7     8    1
    25     7     2   ar
    26    15     9   ar
    27    25    20    1
@<TRIPOS>MOLECULE
*****
 25 27 0 0 0
SMALL
GASTEIGER

@<TRIPOS>ATOM
      1 C         143.9302  139.4485  163.8561 C.3     1  UNL1        0.0532
      2 C         142.5372  139.4010  164.4105 C.ar    1  UNL1        0.0761
      3 N         142.2009  140.1601  165.6598 N.ar    1  UNL1       -0.2298
      4 C         140.8080  140.1126  166.2142 C.ar    1  UNL1        0.1650
      5 N         139.7512  139.3062  165.5193 N.ar    1  UNL1       -0.1918
      6 C         140.0875  138.5472  164.2700 C.ar    1  UNL1        0.2382
      7 C         141.4805  138.5946  163.7156 C.ar    1  UNL1        0.1242
      8 CL        141.8167  137.8355  162.4663 Cl      1  UNL1       -0.0761
      9 C         140.4717  140.8717  167.4635 C.ar    1  UNL1        0.0360
     10 C         140.8539  142.3168  167.5889 C.ar    1  UNL1        0.0054
     11 C         140.5177  143.0759  168.8382 C.ar    1  UNL1        0.0297
     12 C         139.7993  142.3899  169.9622 C.ar    1  UNL1        0.1401
     13 F         139.4631  143.1490  171.2114 F       1  UNL1       -0.2042
     14 C         139.4171  140.9448  169.8368 C.ar    1  UNL1        0.0297
     15 C         139.7533  140.1857  168.5875 C.ar    1  UNL1        0.0054
     16 O         139.0308  137.7406  163.5751 O.3     1  UNL1       -0.4596
     17 C         138.2662  138.3347  162.4294 C.3     1  UNL1        0.2086
     18 C         138.4207  139.7896  162.0987 C.3     1  UNL1        0.0647
     19 C         137.7026  140.8243  162.9134 C.3     1  UNL1        0.0759
     20 N         138.4611  141.9806  163.4944 N.3     1  UNL1       -0.2726
     21 C         137.7609  142.9676  164.3807 C.3     1  UNL1        0.0721
     22 C         138.5194  144.1239  164.9616 C.3     1  UNL1        0.0174
     23 C         139.9782  144.2932  164.6563 C.3     1  UNL1        0.0029
     24 C         140.6785  143.3062  163.7701 C.3     1  UNL1        0.0174
     25 C         139.9199  142.1499  163.1891 C.3     1  UNL1        0.0721
@<TRIPOS>BOND
     1     1     2    1
     2     2     3   ar
     3     3     4   ar
     4     4     9    1
     5     9    10   ar
     6    10    11   ar
     7    11    12   ar
     8    12    13    1
     9    12    14   ar
    10    14    15   ar
    11     4     5   ar
    12     5     6   ar
    13     6    16    1
    14    16    17    1
    15    17    18    1
    16    18    19    1
    17    19    20    1
    18    20    21    1
    19    21    22    1
    20    22    23    1
    21    23    24    1
    22    24    25    1
    23     6     7   ar
    24     7     8    1
    25     7     2   ar
    26    15     9   ar
    27    25    20    1
@<TRIPOS>MOLECULE
*****
 25 27 0 0 0
SMALL
GASTEIGER

@<TRIPOS>ATOM
      1 C         140.3475  140.0820  170.3777 C.3     1  UNL1        0.0532
      2 C         140.7901  140.2333  168.9525 C.ar    1  UNL1        0.0761
      3 N         140.0138  141.1099  168.0151 N.ar    1  UNL1       -0.2298
      4 C         140.4565  141.2612  166.5899 C.ar    1  UNL1        0.1650
      5 N         141.6754  140.5359  166.1021 N.ar    1  UNL1       -0.1918
      6 C         142.4517  139.6592  167.0395 C.ar    1  UNL1        0.2382
      7 C         142.0091  139.5079  168.4647 C.ar    1  UNL1        0.1242
      8 CL        142.7855  138.6312  169.4022 Cl      1  UNL1       -0.0761
      9 C         139.6801  142.1380  165.6525 C.ar    1  UNL1        0.0360
     10 C         140.0819  143.5701  165.4591 C.ar    1  UNL1        0.0054
     11 C         139.3055  144.4468  164.5217 C.ar    1  UNL1        0.0297
     12 C         138.1274  143.8914  163.7778 C.ar    1  UNL1        0.1401
     13 F         137.3510  144.7681  162.8404 F       1  UNL1       -0.2042
     14 C         137.7256  142.4592  163.9712 C.ar    1  UNL1        0.0297
     15 C         138.5020  141.5825  164.9086 C.ar    1  UNL1        0.0054
     16 O         143.6707  138.9338  166.5518 O.3     1  UNL1       -0.4596
     17 C         143.9014  138.7603  165.0798 C.3     1  UNL1        0.2086
     18 C         144.7878  139.7191  164.3414 C.3     1  UNL1        0.0647
     19 C         144.2276  140.5520  163.2268 C.3     1  UNL1        0.0759
     20 N         143.9530  142.0103  163.4454 N.3     1  UNL1       -0.2726
     21 C         144.3752  142.6695  164.7250 C.3     1  UNL1        0.0721
     22 C         144.1006  144.1279  164.9435 C.3     1  UNL1        0.0174
     23 C         143.4037  144.9271  163.8826 C.3     1  UNL1        0.0029
     24 C         142.9814  144.2679  162.6031 C.3     1  UNL1        0.0174
     25 C         143.2560  142.8095  162.3845 C.3     1  UNL1        0.0721
@<TRIPOS>BOND
     1     1     2    1
     2     2     3   ar
     3     3     4   ar
     4     4     9    1
     5     9    10   ar
     6    10    11   ar
     7    11    12   ar
     8    12    13    1
     9    12    14   ar
    10    14    15   ar
    11     4     5   ar
    12     5     6   ar
    13     6    16    1
    14    16    17    1
    15    17    18    1
    16    18    19    1
    17    19    20    1
    18    20    21    1
    19    21    22    1
    20    22    23    1
    21    23    24    1
    22    24    25    1
    23     6     7   ar
    24     7     8    1
    25     7     2   ar
    26    15     9   ar
    27    25    20    1
@<TRIPOS>MOLECULE
*****
 25 27 0 0 0
SMALL
GASTEIGER

@<TRIPOS>ATOM
      1 C         142.6124  138.4047  163.0515 C.3     1  UNL1        0.0532
      2 C         142.1292  139.6996  163.6343 C.ar    1  UNL1        0.0761
      3 N         142.2117  139.9334  165.1136 N.ar    1  UNL1       -0.2298
      4 C         141.7285  141.2283  165.6964 C.ar    1  UNL1        0.1650
      5 N         141.1626  142.2894  164.7998 N.ar    1  UNL1       -0.1918
      6 C         141.0800  142.0556  163.3205 C.ar    1  UNL1        0.2382
      7 C         141.5633  140.7607  162.7377 C.ar    1  UNL1        0.1242
      8 CL        141.4807  140.5269  161.2583 Cl      1  UNL1       -0.0761
      9 C         141.8111  141.4621  167.1758 C.ar    1  UNL1        0.0360
     10 C         140.6976  141.0046  168.0707 C.ar    1  UNL1        0.0054
     11 C         140.7801  141.2383  169.5500 C.ar    1  UNL1        0.0297
     12 C         141.9762  141.9296  170.1346 C.ar    1  UNL1        0.1401
     13 F         142.0588  142.1634  171.6139 F       1  UNL1       -0.2042
     14 C         143.0897  142.3871  169.2397 C.ar    1  UNL1        0.0297
     15 C         143.0071  142.1533  167.7602 C.ar    1  UNL1        0.0054
     16 O         140.5141  143.1167  162.4239 O.3     1  UNL1       -0.4596
     17 C         139.0585  143.0954  162.0626 C.3     1  UNL1        0.2086
     18 C         138.0363  142.7089  163.0902 C.3     1  UNL1        0.0647
     19 C         137.3282  141.3908  162.9848 C.3     1  UNL1        0.0759
     20 N         137.9491  140.1570  163.5699 N.3     1  UNL1       -0.2726
     21 C         138.2327  140.0856  165.0411 C.3     1  UNL1        0.0721
     22 C         138.8535  138.8518  165.6262 C.3     1  UNL1        0.0174
     23 C         139.1909  137.6895  164.7401 C.3     1  UNL1        0.0029
     24 C         138.9073  137.7609  163.2689 C.3     1  UNL1        0.0174
     25 C         138.2864  138.9947  162.6837 C.3     1  UNL1        0.0721
@<TRIPOS>BOND
     1     1     2    1
     2     2     3   ar
     3     3     4   ar
     4     4     9    1
     5     9    10   ar
     6    10    11   ar
     7    11    12   ar
     8    12    13    1
     9    12    14   ar
    10    14    15   ar
    11     4     5   ar
    12     5     6   ar
    13     6    16    1
    14    16    17    1
    15    17    18    1
    16    18    19    1
    17    19    20    1
    18    20    21    1
    19    21    22    1
    20    22    23    1
    21    23    24    1
    22    24    25    1
    23     6     7   ar
    24     7     8    1
    25     7     2   ar
    26    15     9   ar
    27    25    20    1
@<TRIPOS>MOLECULE
*****
 25 27 0 0 0
SMALL
GASTEIGER

@<TRIPOS>ATOM
      1 C         140.9435  137.1988  163.0666 C.3     1  UNL1        0.0532
      2 C         141.8007  138.0634  163.9426 C.ar    1  UNL1        0.0761
      3 N         141.3538  138.3968  165.3351 N.ar    1  UNL1       -0.2298
      4 C         142.2110  139.2614  166.2112 C.ar    1  UNL1        0.1650
      5 N         143.5152  139.7928  165.6948 N.ar    1  UNL1       -0.1918
      6 C         143.9621  139.4595  164.3023 C.ar    1  UNL1        0.2382
      7 C         143.1049  138.5948  163.4262 C.ar    1  UNL1        0.1242
      8 CL        143.5520  138.2615  162.0337 Cl      1  UNL1       -0.0761
      9 C         141.7640  139.5948  167.6038 C.ar    1  UNL1        0.0360
     10 C         142.7348  139.5084  168.7439 C.ar    1  UNL1        0.0054
     11 C         142.2878  139.8417  170.1364 C.ar    1  UNL1        0.0297
     12 C         140.8700  140.2614  170.3888 C.ar    1  UNL1        0.1401
     13 F         140.4230  140.5946  171.7813 F       1  UNL1       -0.2042
     14 C         139.8991  140.3477  169.2486 C.ar    1  UNL1        0.0297
     15 C         140.3462  140.0144  167.8561 C.ar    1  UNL1        0.0054
     16 O         145.2664  139.9908  163.7858 O.3     1  UNL1       -0.4596
     17 C         145.5639  141.4586  163.8688 C.3     1  UNL1        0.2086
     18 C         144.5021  142.4599  163.5219 C.3     1  UNL1        0.0647
     19 C         143.9741  143.3885  164.5749 C.3     1  UNL1        0.0759
     20 N         142.4982  143.6299  164.6903 N.3     1  UNL1       -0.2726
     21 C         141.6933  142.8812  165.7109 C.3     1  UNL1        0.0721
     22 C         140.2173  143.1226  165.8263 C.3     1  UNL1        0.0174
     23 C         139.5463  144.1127  164.9210 C.3     1  UNL1        0.0029
     24 C         140.3512  144.8614  163.9004 C.3     1  UNL1        0.0174
     25 C         141.8272  144.6200  163.7850 C.3     1  UNL1        0.0721
@<TRIPOS>BOND
     1     1     2    1
     2     2     3   ar
     3     3     4   ar
     4     4     9    1
     5     9    10   ar
     6    10    11   ar
     7    11    12   ar
     8    12    13    1
     9    12    14   ar
    10    14    15   ar
    11     4     5   ar
    12     5     6   ar
    13     6    16    1
    14    16    17    1
    15    17    18    1
    16    18    19    1
    17    19    20    1
    18    20    21    1
    19    21    22    1
    20    22    23    1
    21    23    24    1
    22    24    25    1
    23     6     7   ar
    24     7     8    1
    25     7     2   ar
    26    15     9   ar
    27    25    20    1
@<TRIPOS>MOLECULE
*****
 25 27 0 0 0
SMALL
GASTEIGER

@<TRIPOS>ATOM
      1 C         139.1338  137.4546  163.2959 C.3     1  UNL1        0.0532
      2 C         138.9091  138.8275  163.8569 C.ar    1  UNL1        0.0761
      3 N         139.4181  139.1710  165.2254 N.ar    1  UNL1       -0.2298
      4 C         139.1934  140.5439  165.7863 C.ar    1  UNL1        0.1650
      5 N         138.4597  141.5732  164.9788 N.ar    1  UNL1       -0.1918
      6 C         137.9507  141.2296  163.6103 C.ar    1  UNL1        0.2382
      7 C         138.1754  139.8568  163.0493 C.ar    1  UNL1        0.1242
      8 CL        137.6664  139.5132  161.6808 Cl      1  UNL1       -0.0761
      9 C         139.7025  140.8875  167.1549 C.ar    1  UNL1        0.0360
     10 C         139.4539  139.9553  168.3034 C.ar    1  UNL1        0.0054
     11 C         139.9629  140.2988  169.6719 C.ar    1  UNL1        0.0297
     12 C         140.7206  141.5746  169.8920 C.ar    1  UNL1        0.1401
     13 F         141.2296  141.9181  171.2605 F       1  UNL1       -0.2042
     14 C         140.9692  142.5068  168.7434 C.ar    1  UNL1        0.0297
     15 C         140.4602  142.1632  167.3749 C.ar    1  UNL1        0.0054
     16 O         137.2170  142.2590  162.8027 O.3     1  UNL1       -0.4596
     17 C         137.9780  143.3472  162.1052 C.3     1  UNL1        0.2086
     18 C         139.4191  143.1413  161.7434 C.3     1  UNL1        0.0647
     19 C         140.4954  143.8295  162.5295 C.3     1  UNL1        0.0759
     20 N         141.4517  143.0231  163.3573 N.3     1  UNL1       -0.2726
     21 C         141.5619  141.5421  163.1462 C.3     1  UNL1        0.0721
     22 C         142.5182  140.7357  163.9740 C.3     1  UNL1        0.0174
     23 C         143.3642  141.4102  165.0128 C.3     1  UNL1        0.0029
     24 C         143.2540  142.8911  165.2239 C.3     1  UNL1        0.0174
     25 C         142.2977  143.6976  164.3961 C.3     1  UNL1        0.0721
@<TRIPOS>BOND
     1     1     2    1
     2     2     3   ar
     3     3     4   ar
     4     4     9    1
     5     9    10   ar
     6    10    11   ar
     7    11    12   ar
     8    12    13    1
     9    12    14   ar
    10    14    15   ar
    11     4     5   ar
    12     5     6   ar
    13     6    16    1
    14    16    17    1
    15    17    18    1
    16    18    19    1
    17    19    20    1
    18    20    21    1
    19    21    22    1
    20    22    23    1
    21    23    24    1
    22    24    25    1
    23     6     7   ar
    24     7     8    1
    25     7     2   ar
    26    15     9   ar
    27    25    20    1
