@<TRIPOS>MOLECULE
*****
 28 32 0 0 0
SMALL
GASTEIGER

@<TRIPOS>ATOM
      1 C         139.4603  139.8469  167.4689 C.ar    1  UNL1        0.1584
      2 N         140.6615  140.4944  166.8462 N.ar    1  UNL1       -0.2106
      3 C         141.6393  141.2421  167.7034 C.ar    1  UNL1        0.1652
      4 C         141.4159  141.3423  169.1833 C.ar    1  UNL1        0.1116
      5 C         142.5434  142.1393  169.7695 C.ar    1  UNL1        0.0968
      6 N         143.4635  142.5318  168.6518 N.ar    1  UNL1       -0.2924
      7 N         142.9048  141.9773  167.3749 N.ar    1  UNL1       -0.2588
      8 C         140.2147  140.6947  169.8060 C.ar    1  UNL1        0.2848
      9 O         139.9913  140.7948  171.2859 O.2     1  UNL1       -0.2650
     10 N         139.2369  139.9470  168.9487 N.ar    1  UNL1       -0.1914
     11 H         144.2892  143.0606  168.7407 H       1  UNL1        0.1871
     12 C         143.5061  142.1311  166.0093 C.3     1  UNL1        0.1046
     13 C         143.5608  141.0745  164.9460 C.3     1  UNL1        0.0243
     14 C         144.2468  141.6589  163.7468 C.3     1  UNL1        0.0021
     15 C         144.6160  143.0766  164.0690 C.3     1  UNL1        0.0021
     16 C         144.1582  143.3684  165.4673 C.3     1  UNL1        0.0243
     17 C         137.4075  138.2696  167.2490 C.3     1  UNL1        0.0256
     18 C         138.4825  139.0991  166.6116 C.3     1  UNL1        0.1169
     19 N         138.5797  139.1810  165.1171 N.3     1  UNL1       -0.2669
     20 C         138.9153  138.2130  164.0215 C.3     1  UNL1        0.0814
     21 C         138.7171  139.2967  163.0034 C.3     1  UNL1        0.0905
     22 C         138.3815  140.2646  164.0990 C.3     1  UNL1        0.0814
     23 C         138.8143  139.3785  161.5087 C.ar    1  UNL1        0.1415
     24 N         137.8356  140.2143  160.7383 N.ar    1  UNL1       -0.2291
     25 C         137.9327  140.2962  159.2437 C.ar    1  UNL1        0.1018
     26 C         139.0085  139.5424  158.5195 C.ar    1  UNL1        0.0413
     27 C         139.9872  138.7067  159.2900 C.ar    1  UNL1        0.1018
     28 N         139.8901  138.6247  160.7846 N.ar    1  UNL1       -0.2291
@<TRIPOS>BOND
     1    18    17    1
     2    18     1    1
     3     1     2   ar
     4     2     3   ar
     5     3     4    1
     6     4     5   ar
     7     5     6   ar
     8     6     7   ar
     9     7    12    1
    10    12    13    1
    11    13    14    1
    12    14    15    1
    13    15    16    1
    14     4     8   ar
    15     8     9    2
    16     8    10   ar
    17    18    19    1
    18    19    20    1
    19    20    21    1
    20    21    23    1
    21    23    24   ar
    22    24    25   ar
    23    25    26   ar
    24    26    27   ar
    25    27    28   ar
    26    21    22    1
    27    10     1   ar
    28    22    19    1
    29     7     3   ar
    30    16    12    1
    31    28    23   ar
    32     6    11    1
@<TRIPOS>MOLECULE
*****
 28 32 0 0 0
SMALL
GASTEIGER

@<TRIPOS>ATOM
      1 C         142.8492  141.5892  161.7840 C.ar    1  UNL1        0.1584
      2 N         141.7222  142.4034  162.3470 N.ar    1  UNL1       -0.2106
      3 C         141.1595  143.5500  161.5605 C.ar    1  UNL1        0.1652
      4 C         141.7236  143.8823  160.2109 C.ar    1  UNL1        0.1116
      5 C         140.9702  145.0617  159.6711 C.ar    1  UNL1        0.0968
      6 N         139.9403  145.4582  160.6871 N.ar    1  UNL1       -0.2924
      7 N         140.0573  144.5240  161.8548 N.ar    1  UNL1       -0.2588
      8 C         142.8506  143.0681  159.6479 C.ar    1  UNL1        0.2848
      9 O         143.4149  143.4004  158.2984 O.2     1  UNL1       -0.2650
     10 N         143.4134  141.9215  160.4345 N.ar    1  UNL1       -0.1914
     11 H         139.3000  146.2012  160.6024 H       1  UNL1        0.1871
     12 C         139.2192  144.5577  163.0983 C.3     1  UNL1        0.1046
     13 C         139.6812  144.9793  164.4617 C.3     1  UNL1        0.0243
     14 C         138.5195  144.8579  165.4028 C.3     1  UNL1        0.0021
     15 C         137.3395  144.3614  164.6211 C.3     1  UNL1        0.0021
     16 C         137.7720  144.1759  163.1968 C.3     1  UNL1        0.0243
     17 C         144.3678  139.4857  161.9220 C.3     1  UNL1        0.0256
     18 C         143.4120  140.4426  162.5706 C.3     1  UNL1        0.1169
     19 N         143.0189  140.2530  164.0056 N.3     1  UNL1       -0.2669
     20 C         143.3807  140.9170  165.3011 C.3     1  UNL1        0.0814
     21 C         142.4630  139.9848  166.0352 C.3     1  UNL1        0.0905
     22 C         142.1013  139.3207  164.7397 C.3     1  UNL1        0.0814
     23 C         142.0699  139.7951  167.4703 C.ar    1  UNL1        0.1415
     24 N         143.0069  139.1098  168.4202 N.ar    1  UNL1       -0.2291
     25 C         142.6139  138.9201  169.8554 C.ar    1  UNL1        0.1018
     26 C         141.2839  139.4156  170.3405 C.ar    1  UNL1        0.0413
     27 C         140.3469  140.1009  169.3906 C.ar    1  UNL1        0.1018
     28 N         140.7399  140.2906  167.9555 N.ar    1  UNL1       -0.2291
@<TRIPOS>BOND
     1    18    17    1
     2    18     1    1
     3     1     2   ar
     4     2     3   ar
     5     3     4    1
     6     4     5   ar
     7     5     6   ar
     8     6     7   ar
     9     7    12    1
    10    12    13    1
    11    13    14    1
    12    14    15    1
    13    15    16    1
    14     4     8   ar
    15     8     9    2
    16     8    10   ar
    17    18    19    1
    18    19    20    1
    19    20    21    1
    20    21    23    1
    21    23    24   ar
    22    24    25   ar
    23    25    26   ar
    24    26    27   ar
    25    27    28   ar
    26    21    22    1
    27    10     1   ar
    28    22    19    1
    29     7     3   ar
    30    16    12    1
    31    28    23   ar
    32     6    11    1
@<TRIPOS>MOLECULE
*****
 28 32 0 0 0
SMALL
GASTEIGER

@<TRIPOS>ATOM
      1 C         139.1070  139.8566  162.4022 C.ar    1  UNL1        0.1584
      2 N         139.9065  141.1250  162.4481 N.ar    1  UNL1       -0.2106
      3 C         139.8888  142.0654  161.2797 C.ar    1  UNL1        0.1652
      4 C         139.0717  141.7374  160.0653 C.ar    1  UNL1        0.1116
      5 C         139.2484  142.8488  159.0736 C.ar    1  UNL1        0.0968
      6 N         140.1749  143.8637  159.6751 N.ar    1  UNL1       -0.2924
      7 N         140.5707  143.3795  161.0385 N.ar    1  UNL1       -0.2588
      8 C         138.2722  140.4691  160.0194 C.ar    1  UNL1        0.2848
      9 O         137.4550  140.1411  158.8050 O.2     1  UNL1       -0.2650
     10 N         138.2899  139.5287  161.1879 N.ar    1  UNL1       -0.1914
     11 H         140.4711  144.7007  159.2497 H       1  UNL1        0.1871
     12 C         141.4873  144.0855  161.9931 C.3     1  UNL1        0.1046
     13 C         142.9848  143.9998  162.0039 C.3     1  UNL1        0.0243
     14 C         143.4904  144.8625  163.1221 C.3     1  UNL1        0.0021
     15 C         142.3053  145.4814  163.8023 C.3     1  UNL1        0.0021
     16 C         141.0674  145.0011  163.1046 C.3     1  UNL1        0.0243
     17 C         138.8569  137.4553  163.3618 C.3     1  UNL1        0.0256
     18 C         139.1247  138.9163  163.5708 C.3     1  UNL1        0.1169
     19 N         139.4102  139.4369  164.9482 N.3     1  UNL1       -0.2669
     20 C         140.6526  139.7739  165.7182 C.3     1  UNL1        0.0814
     21 C         139.8141  140.1731  166.8962 C.3     1  UNL1        0.0905
     22 C         138.5718  139.8361  166.1261 C.3     1  UNL1        0.0814
     23 C         140.0996  140.6938  168.2737 C.ar    1  UNL1        0.1415
     24 N         140.3777  142.1531  168.4811 N.ar    1  UNL1       -0.2291
     25 C         140.6632  142.6738  169.8586 C.ar    1  UNL1        0.1018
     26 C         140.6706  141.7352  171.0286 C.ar    1  UNL1        0.0413
     27 C         140.3925  140.2759  170.8212 C.ar    1  UNL1        0.1018
     28 N         140.1070  139.7552  169.4437 N.ar    1  UNL1       -0.2291
@<TRIPOS>BOND
     1    18    17    1
     2    18     1    1
     3     1     2   ar
     4     2     3   ar
     5     3     4    1
     6     4     5   ar
     7     5     6   ar
     8     6     7   ar
     9     7    12    1
    10    12    13    1
    11    13    14    1
    12    14    15    1
    13    15    16    1
    14     4     8   ar
    15     8     9    2
    16     8    10   ar
    17    18    19    1
    18    19    20    1
    19    20    21    1
    20    21    23    1
    21    23    24   ar
    22    24    25   ar
    23    25    26   ar
    24    26    27   ar
    25    27    28   ar
    26    21    22    1
    27    10     1   ar
    28    22    19    1
    29     7     3   ar
    30    16    12    1
    31    28    23   ar
    32     6    11    1
@<TRIPOS>MOLECULE
*****
 28 32 0 0 0
SMALL
GASTEIGER

@<TRIPOS>ATOM
      1 C         140.4525  142.9135  165.7114 C.ar    1  UNL1        0.1584
      2 N         141.1837  141.8199  164.9907 N.ar    1  UNL1       -0.2106
      3 C         141.8891  140.7495  165.7697 C.ar    1  UNL1        0.1652
      4 C         141.8632  140.7728  167.2693 C.ar    1  UNL1        0.1116
      5 C         142.6440  139.5917  167.7647 C.ar    1  UNL1        0.0968
      6 N         143.1524  138.8386  166.5713 N.ar    1  UNL1       -0.2924
      7 N         142.6859  139.5541  165.3383 N.ar    1  UNL1       -0.2588
      8 C         141.1320  141.8663  167.9899 C.ar    1  UNL1        0.2848
      9 O         141.1061  141.8896  169.4896 O.2     1  UNL1       -0.2650
     10 N         140.4266  142.9367  167.2109 N.ar    1  UNL1       -0.1914
     11 H         143.6968  138.0186  166.5934 H       1  UNL1        0.1871
     12 C         142.9668  139.1459  163.9225 C.3     1  UNL1        0.1046
     13 C         142.1992  138.1306  163.1288 C.3     1  UNL1        0.0243
     14 C         142.8227  138.0386  161.7676 C.3     1  UNL1        0.0021
     15 C         143.9756  138.9970  161.7200 C.3     1  UNL1        0.0021
     16 C         144.0646  139.6814  163.0518 C.3     1  UNL1        0.0243
     17 C         138.6844  144.8132  165.5901 C.3     1  UNL1        0.0256
     18 C         139.7472  143.9839  164.9324 C.3     1  UNL1        0.1169
     19 N         140.1046  144.2249  163.4957 N.3     1  UNL1       -0.2669
     20 C         140.9978  145.1886  162.7723 C.3     1  UNL1        0.0814
     21 C         140.6101  144.5658  161.4639 C.3     1  UNL1        0.0905
     22 C         139.7169  143.6021  162.1874 C.3     1  UNL1        0.0814
     23 C         140.9675  144.8068  160.0272 C.ar    1  UNL1        0.1415
     24 N         142.2344  144.2348  159.4634 N.ar    1  UNL1       -0.2291
     25 C         142.5919  144.4758  158.0267 C.ar    1  UNL1        0.1018
     26 C         141.6825  145.2887  157.1537 C.ar    1  UNL1        0.0413
     27 C         140.4156  145.8607  157.7175 C.ar    1  UNL1        0.1018
     28 N         140.0581  145.6197  159.1542 N.ar    1  UNL1       -0.2291
@<TRIPOS>BOND
     1    18    17    1
     2    18     1    1
     3     1     2   ar
     4     2     3   ar
     5     3     4    1
     6     4     5   ar
     7     5     6   ar
     8     6     7   ar
     9     7    12    1
    10    12    13    1
    11    13    14    1
    12    14    15    1
    13    15    16    1
    14     4     8   ar
    15     8     9    2
    16     8    10   ar
    17    18    19    1
    18    19    20    1
    19    20    21    1
    20    21    23    1
    21    23    24   ar
    22    24    25   ar
    23    25    26   ar
    24    26    27   ar
    25    27    28   ar
    26    21    22    1
    27    10     1   ar
    28    22    19    1
    29     7     3   ar
    30    16    12    1
    31    28    23   ar
    32     6    11    1
@<TRIPOS>MOLECULE
*****
 28 32 0 0 0
SMALL
GASTEIGER

@<TRIPOS>ATOM
      1 C         142.6944  143.1360  163.2795 C.ar    1  UNL1        0.1584
      2 N         141.9201  142.0069  163.8924 N.ar    1  UNL1       -0.2106
      3 C         142.6224  140.7396  164.2805 C.ar    1  UNL1        0.1652
      4 C         144.0990  140.6013  164.0557 C.ar    1  UNL1        0.1116
      5 C         144.5159  139.2428  164.5358 C.ar    1  UNL1        0.0968
      6 N         143.2969  138.5414  165.0573 N.ar    1  UNL1       -0.2924
      7 N         142.1267  139.4664  164.8996 N.ar    1  UNL1       -0.2588
      8 C         144.8733  141.7304  163.4428 C.ar    1  UNL1        0.2848
      9 O         146.3500  141.5923  163.2179 O.2     1  UNL1       -0.2650
     10 N         144.1709  142.9978  163.0547 N.ar    1  UNL1       -0.1914
     11 H         143.2696  137.6333  165.4366 H       1  UNL1        0.1871
     12 C         140.7095  139.1703  165.2920 C.3     1  UNL1        0.1046
     13 C         139.8959  139.9300  166.2974 C.3     1  UNL1        0.0243
     14 C         138.5407  139.2917  166.3746 C.3     1  UNL1        0.0021
     15 C         138.5167  138.1374  165.4170 C.3     1  UNL1        0.0021
     16 C         139.8571  138.0624  164.7479 C.3     1  UNL1        0.0243
     17 C         141.8276  145.5069  163.8941 C.3     1  UNL1        0.0256
     18 C         141.9920  144.4034  162.8915 C.3     1  UNL1        0.1169
     19 N         141.4540  144.5672  161.5010 N.3     1  UNL1       -0.2669
     20 C         141.8014  144.0015  160.1559 C.3     1  UNL1        0.0814
     21 C         140.6932  144.7988  159.5344 C.3     1  UNL1        0.0905
     22 C         140.3458  145.3645  160.8795 C.3     1  UNL1        0.0814
     23 C         140.1551  144.9626  158.1438 C.ar    1  UNL1        0.1415
     24 N         139.4222  143.8317  157.4852 N.ar    1  UNL1       -0.2291
     25 C         138.8841  143.9955  156.0946 C.ar    1  UNL1        0.1018
     26 C         139.0790  145.2902  155.3627 C.ar    1  UNL1        0.0413
     27 C         139.8119  146.4211  156.0213 C.ar    1  UNL1        0.1018
     28 N         140.3500  146.2573  157.4118 N.ar    1  UNL1       -0.2291
@<TRIPOS>BOND
     1    18    17    1
     2    18     1    1
     3     1     2   ar
     4     2     3   ar
     5     3     4    1
     6     4     5   ar
     7     5     6   ar
     8     6     7   ar
     9     7    12    1
    10    12    13    1
    11    13    14    1
    12    14    15    1
    13    15    16    1
    14     4     8   ar
    15     8     9    2
    16     8    10   ar
    17    18    19    1
    18    19    20    1
    19    20    21    1
    20    21    23    1
    21    23    24   ar
    22    24    25   ar
    23    25    26   ar
    24    26    27   ar
    25    27    28   ar
    26    21    22    1
    27    10     1   ar
    28    22    19    1
    29     7     3   ar
    30    16    12    1
    31    28    23   ar
    32     6    11    1
@<TRIPOS>MOLECULE
*****
 28 32 0 0 0
SMALL
GASTEIGER

@<TRIPOS>ATOM
      1 C         143.6058  140.4778  164.1223 C.ar    1  UNL1        0.1584
      2 N         142.3197  141.2009  164.3927 N.ar    1  UNL1       -0.2106
      3 C         141.5212  140.8773  165.6205 C.ar    1  UNL1        0.1652
      4 C         142.0087  139.8306  166.5779 C.ar    1  UNL1        0.1116
      5 C         141.0147  139.7265  167.6965 C.ar    1  UNL1        0.0968
      6 N         139.9129  140.7089  167.4303 N.ar    1  UNL1       -0.2924
      7 N         140.2259  141.4202  166.1473 N.ar    1  UNL1       -0.2588
      8 C         143.2947  139.1075  166.3076 C.ar    1  UNL1        0.2848
      9 O         143.7823  138.0607  167.2650 O.2     1  UNL1       -0.2650
     10 N         144.0933  139.4311  165.0796 N.ar    1  UNL1       -0.1914
     11 H         139.1230  140.8603  167.9981 H       1  UNL1        0.1871
     12 C         139.3903  142.4869  165.5041 C.3     1  UNL1        0.1046
     13 C         139.5862  143.9671  165.6483 C.3     1  UNL1        0.0243
     14 C         138.5290  144.6558  164.8370 C.3     1  UNL1        0.0021
     15 C         137.6798  143.6013  164.1914 C.3     1  UNL1        0.0021
     16 C         138.2121  142.2609  164.6037 C.3     1  UNL1        0.0243
     17 C         145.6098  141.6883  162.9959 C.3     1  UNL1        0.0256
     18 C         144.4043  140.8014  162.8944 C.3     1  UNL1        0.1169
     19 N         143.9974  140.2383  161.5651 N.3     1  UNL1       -0.2669
     20 C         144.0474  138.8814  160.9278 C.3     1  UNL1        0.0814
     21 C         143.4218  139.4419  159.6850 C.3     1  UNL1        0.0905
     22 C         143.3718  140.7989  160.3223 C.3     1  UNL1        0.0814
     23 C         143.0148  138.8788  158.3556 C.ar    1  UNL1        0.1415
     24 N         143.8566  139.1388  157.1416 N.ar    1  UNL1       -0.2291
     25 C         143.4497  138.5758  155.8122 C.ar    1  UNL1        0.1018
     26 C         142.2010  137.7527  155.6967 C.ar    1  UNL1        0.0413
     27 C         141.3592  137.4927  156.9107 C.ar    1  UNL1        0.1018
     28 N         141.7661  138.0558  158.2402 N.ar    1  UNL1       -0.2291
@<TRIPOS>BOND
     1    18    17    1
     2    18     1    1
     3     1     2   ar
     4     2     3   ar
     5     3     4    1
     6     4     5   ar
     7     5     6   ar
     8     6     7   ar
     9     7    12    1
    10    12    13    1
    11    13    14    1
    12    14    15    1
    13    15    16    1
    14     4     8   ar
    15     8     9    2
    16     8    10   ar
    17    18    19    1
    18    19    20    1
    19    20    21    1
    20    21    23    1
    21    23    24   ar
    22    24    25   ar
    23    25    26   ar
    24    26    27   ar
    25    27    28   ar
    26    21    22    1
    27    10     1   ar
    28    22    19    1
    29     7     3   ar
    30    16    12    1
    31    28    23   ar
    32     6    11    1
@<TRIPOS>MOLECULE
*****
 28 32 0 0 0
SMALL
GASTEIGER

@<TRIPOS>ATOM
      1 C         141.1314  141.1484  164.4233 C.ar    1  UNL1        0.1584
      2 N         140.9554  141.0697  165.9109 N.ar    1  UNL1       -0.2106
      3 C         139.8599  140.2265  166.4929 C.ar    1  UNL1        0.1652
      4 C         138.9404  139.4619  165.5874 C.ar    1  UNL1        0.1116
      5 C         137.9580  138.7194  166.4439 C.ar    1  UNL1        0.0968
      6 N         138.2704  139.0251  167.8788 N.ar    1  UNL1       -0.2924
      7 N         139.4458  139.9565  167.9091 N.ar    1  UNL1       -0.2588
      8 C         139.1164  139.5406  164.0998 C.ar    1  UNL1        0.2848
      9 O         138.1970  138.7760  163.1942 O.2     1  UNL1       -0.2650
     10 N         140.2120  140.3839  163.5179 N.ar    1  UNL1       -0.1914
     11 H         137.7886  138.6758  168.6631 H       1  UNL1        0.1871
     12 C         140.0934  140.5192  169.1396 C.3     1  UNL1        0.1046
     13 C         139.8527  141.8822  169.7178 C.3     1  UNL1        0.0243
     14 C         140.7060  142.0229  170.9435 C.3     1  UNL1        0.0021
     15 C         141.4740  140.7470  171.1227 C.3     1  UNL1        0.0021
     16 C         141.0954  139.8176  170.0079 C.3     1  UNL1        0.0243
     17 C         143.5581  142.0704  164.5283 C.3     1  UNL1        0.0256
     18 C         142.2270  141.9917  163.8413 C.3     1  UNL1        0.1169
     19 N         141.9915  142.7561  162.5725 N.3     1  UNL1       -0.2669
     20 C         141.8491  144.2069  162.2192 C.3     1  UNL1        0.0814
     21 C         141.6584  143.8373  160.7780 C.3     1  UNL1        0.0905
     22 C         141.8008  142.3865  161.1313 C.3     1  UNL1        0.0814
     23 C         141.4229  144.6017  159.5091 C.ar    1  UNL1        0.1415
     24 N         142.5272  144.7455  158.5042 N.ar    1  UNL1       -0.2291
     25 C         142.2917  145.5099  157.2352 C.ar    1  UNL1        0.1018
     26 C         140.9519  146.1305  156.9712 C.ar    1  UNL1        0.0413
     27 C         139.8476  145.9868  157.9760 C.ar    1  UNL1        0.1018
     28 N         140.0831  145.2224  159.2450 N.ar    1  UNL1       -0.2291
@<TRIPOS>BOND
     1    18    17    1
     2    18     1    1
     3     1     2   ar
     4     2     3   ar
     5     3     4    1
     6     4     5   ar
     7     5     6   ar
     8     6     7   ar
     9     7    12    1
    10    12    13    1
    11    13    14    1
    12    14    15    1
    13    15    16    1
    14     4     8   ar
    15     8     9    2
    16     8    10   ar
    17    18    19    1
    18    19    20    1
    19    20    21    1
    20    21    23    1
    21    23    24   ar
    22    24    25   ar
    23    25    26   ar
    24    26    27   ar
    25    27    28   ar
    26    21    22    1
    27    10     1   ar
    28    22    19    1
    29     7     3   ar
    30    16    12    1
    31    28    23   ar
    32     6    11    1
@<TRIPOS>MOLECULE
*****
 28 32 0 0 0
SMALL
GASTEIGER

@<TRIPOS>ATOM
      1 C         142.0002  142.5440  165.1921 C.ar    1  UNL1        0.1584
      2 N         140.9910  141.6245  164.5706 N.ar    1  UNL1       -0.2106
      3 C         140.1225  140.7657  165.4413 C.ar    1  UNL1        0.1652
      4 C         140.2632  140.8263  166.9335 C.ar    1  UNL1        0.1116
      5 C         139.2757  139.8687  167.5315 C.ar    1  UNL1        0.0968
      6 N         138.5247  139.2162  166.4089 N.ar    1  UNL1       -0.2924
      7 N         139.0481  139.7706  165.1171 N.ar    1  UNL1       -0.2588
      8 C         141.2723  141.7458  167.5550 C.ar    1  UNL1        0.2848
      9 O         141.4131  141.8065  169.0471 O.2     1  UNL1       -0.2650
     10 N         142.1408  142.6046  166.6842 N.ar    1  UNL1       -0.1914
     11 H         137.8132  138.5423  166.5033 H       1  UNL1        0.1871
     12 C         138.5793  139.3956  163.7425 C.3     1  UNL1        0.1046
     13 C         138.7221  138.0481  163.0992 C.3     1  UNL1        0.0243
     14 C         138.1164  138.1221  161.7289 C.3     1  UNL1        0.0021
     15 C         137.5993  139.5153  161.5253 C.3     1  UNL1        0.0021
     16 C         137.8853  140.3024  162.7697 C.3     1  UNL1        0.0243
     17 C         144.1700  143.9310  164.8482 C.3     1  UNL1        0.0256
     18 C         142.8687  143.4028  164.3213 C.3     1  UNL1        0.1169
     19 N         142.4360  143.7334  162.9237 N.3     1  UNL1       -0.2669
     20 C         141.4778  144.7132  162.3138 C.3     1  UNL1        0.0814
     21 C         141.8239  144.2009  160.9472 C.3     1  UNL1        0.0905
     22 C         142.7820  143.2211  161.5571 C.3     1  UNL1        0.0814
     23 C         141.3912  144.5314  159.5495 C.ar    1  UNL1        0.1415
     24 N         140.1849  143.8626  158.9599 N.ar    1  UNL1       -0.2291
     25 C         139.7521  144.1930  157.5622 C.ar    1  UNL1        0.1018
     26 C         140.5255  145.1924  156.7541 C.ar    1  UNL1        0.0413
     27 C         141.7318  145.8613  157.3437 C.ar    1  UNL1        0.1018
     28 N         142.1646  145.5308  158.7413 N.ar    1  UNL1       -0.2291
@<TRIPOS>BOND
     1    18    17    1
     2    18     1    1
     3     1     2   ar
     4     2     3   ar
     5     3     4    1
     6     4     5   ar
     7     5     6   ar
     8     6     7   ar
     9     7    12    1
    10    12    13    1
    11    13    14    1
    12    14    15    1
    13    15    16    1
    14     4     8   ar
    15     8     9    2
    16     8    10   ar
    17    18    19    1
    18    19    20    1
    19    20    21    1
    20    21    23    1
    21    23    24   ar
    22    24    25   ar
    23    25    26   ar
    24    26    27   ar
    25    27    28   ar
    26    21    22    1
    27    10     1   ar
    28    22    19    1
    29     7     3   ar
    30    16    12    1
    31    28    23   ar
    32     6    11    1
@<TRIPOS>MOLECULE
*****
 28 32 0 0 0
SMALL
GASTEIGER

@<TRIPOS>ATOM
      1 C         141.5805  142.8100  161.6924 C.ar    1  UNL1        0.1584
      2 N         140.7768  141.8308  162.4956 N.ar    1  UNL1       -0.2106
      3 C         139.4394  142.2303  163.0449 C.ar    1  UNL1        0.1652
      4 C         138.9058  143.6090  162.7911 C.ar    1  UNL1        0.1116
      5 C         137.5652  143.7168  163.4553 C.ar    1  UNL1        0.0968
      6 N         137.2703  142.4047  164.1196 N.ar    1  UNL1       -0.2924
      7 N         138.4285  141.4860  163.8660 N.ar    1  UNL1       -0.2588
      8 C         139.7096  144.5882  161.9880 C.ar    1  UNL1        0.2848
      9 O         139.1760  145.9670  161.7341 O.2     1  UNL1       -0.2650
     10 N         141.0470  144.1886  161.4386 N.ar    1  UNL1       -0.1914
     11 H         136.4589  142.1850  164.6322 H       1  UNL1        0.1871
     12 C         138.5540  140.0713  164.3487 C.3     1  UNL1        0.1046
     13 C         138.2534  139.5827  165.7347 C.3     1  UNL1        0.0243
     14 C         138.5157  138.1063  165.7727 C.3     1  UNL1        0.0021
     15 C         138.9783  137.6824  164.4102 C.3     1  UNL1        0.0021
     16 C         139.0020  138.8969  163.5302 C.3     1  UNL1        0.0243
     17 C         144.1610  143.1029  161.6178 C.3     1  UNL1        0.0256
     18 C         142.9180  142.4104  161.1431 C.3     1  UNL1        0.1169
     19 N         143.0123  141.3184  160.1191 N.3     1  UNL1       -0.2669
     20 C         142.3718  141.0536  158.7889 C.3     1  UNL1        0.0814
     21 C         143.1458  139.7741  158.6710 C.3     1  UNL1        0.0905
     22 C         143.7863  140.0389  160.0013 C.3     1  UNL1        0.0814
     23 C         143.2402  138.6820  157.6470 C.ar    1  UNL1        0.1415
     24 N         142.5439  137.3738  157.8794 N.ar    1  UNL1       -0.2291
     25 C         142.6383  136.2817  156.8555 C.ar    1  UNL1        0.1018
     26 C         143.4289  136.4977  155.5992 C.ar    1  UNL1        0.0413
     27 C         144.1251  137.8058  155.3668 C.ar    1  UNL1        0.1018
     28 N         144.0308  138.8980  156.3907 N.ar    1  UNL1       -0.2291
@<TRIPOS>BOND
     1    18    17    1
     2    18     1    1
     3     1     2   ar
     4     2     3   ar
     5     3     4    1
     6     4     5   ar
     7     5     6   ar
     8     6     7   ar
     9     7    12    1
    10    12    13    1
    11    13    14    1
    12    14    15    1
    13    15    16    1
    14     4     8   ar
    15     8     9    2
    16     8    10   ar
    17    18    19    1
    18    19    20    1
    19    20    21    1
    20    21    23    1
    21    23    24   ar
    22    24    25   ar
    23    25    26   ar
    24    26    27   ar
    25    27    28   ar
    26    21    22    1
    27    10     1   ar
    28    22    19    1
    29     7     3   ar
    30    16    12    1
    31    28    23   ar
    32     6    11    1
