@<TRIPOS>MOLECULE
*****
 25 27 0 0 0
SMALL
GASTEIGER

@<TRIPOS>ATOM
      1 C         138.9860  139.4718  165.6688 C.ar    1  UNL1        0.0395
      2 C         138.4799  140.4409  164.6419 C.ar    1  UNL1        0.0063
      3 C         138.3361  140.0114  163.2119 C.ar    1  UNL1        0.0376
      4 C         138.6984  138.6127  162.8089 C.ar    1  UNL1        0.1453
      5 C         139.2045  137.6436  163.8358 C.ar    1  UNL1        0.0376
      6 C         139.3482  138.0731  165.2657 C.ar    1  UNL1        0.0063
      7 N         139.8154  141.1118  169.0876 N.ar    1  UNL1       -0.1516
      8 N         138.8867  140.0126  169.5111 N.ar    1  UNL1       -0.0451
      9 N         138.4629  139.2645  168.2820 N.ar    1  UNL1       -0.1077
     10 C         139.1298  139.9013  167.0988 C.ar    1  UNL1        0.2058
     11 N         139.9656  141.0430  167.5967 N.ar    1  UNL1       -0.1297
     12 C         140.3781  143.5728  169.7013 C.3     1  UNL1        0.0298
     13 C         140.4776  142.1053  169.9955 C.3     1  UNL1        0.1427
     14 C         141.2393  141.6314  171.1977 C.3     1  UNL1        0.0917
     15 N         140.7161  140.4869  172.0138 N.3     1  UNL1       -0.3195
     16 H         139.8422  140.7609  172.4627 H       1  UNL1        0.1189
     17 H         141.4010  140.2369  172.7272 H       1  UNL1        0.1189
     18 O         138.5546  138.1832  161.3788 O.3     1  UNL1       -0.4535
     19 C         139.6841  138.3951  160.4149 C.ar    1  UNL1        0.1454
     20 C         141.1035  138.2760  160.8849 C.ar    1  UNL1        0.0384
     21 C         142.2331  138.4880  159.9209 C.ar    1  UNL1        0.0145
     22 C         141.9431  138.8189  158.4869 C.ar    1  UNL1        0.0579
     23 CL        143.0726  139.0308  157.5230 Cl      1  UNL1       -0.0822
     24 C         140.5237  138.9380  158.0169 C.ar    1  UNL1        0.0145
     25 C         139.3942  138.7261  158.9808 C.ar    1  UNL1        0.0384
@<TRIPOS>BOND
     1    13    12    1
     2    13    14    1
     3    14    15    1
     4    13     7    1
     5     7     8   ar
     6     8     9   ar
     7     9    10   ar
     8    10     1    1
     9     1     2   ar
    10     2     3   ar
    11     3     4   ar
    12     4    18    1
    13    18    19    1
    14    19    20   ar
    15    20    21   ar
    16    21    22   ar
    17    22    23    1
    18    22    24   ar
    19    24    25   ar
    20     4     5   ar
    21     5     6   ar
    22    10    11   ar
    23    11     7   ar
    24     6     1   ar
    25    25    19   ar
    26    15    16    1
    27    15    17    1
@<TRIPOS>MOLECULE
*****
 25 27 0 0 0
SMALL
GASTEIGER

@<TRIPOS>ATOM
      1 C         138.8465  139.4795  165.6598 C.ar    1  UNL1        0.0395
      2 C         139.2508  138.1057  165.2137 C.ar    1  UNL1        0.0063
      3 C         139.0396  137.6874  163.7888 C.ar    1  UNL1        0.0376
      4 C         138.4241  138.6430  162.8100 C.ar    1  UNL1        0.1453
      5 C         138.0197  140.0168  163.2562 C.ar    1  UNL1        0.0376
      6 C         138.2309  140.4351  164.6811 C.ar    1  UNL1        0.0063
      7 N         139.8347  141.0942  169.0483 N.ar    1  UNL1       -0.1516
      8 N         138.9305  139.9886  169.5069 N.ar    1  UNL1       -0.0451
      9 N         138.4502  139.2492  168.2933 N.ar    1  UNL1       -0.1077
     10 C         139.0577  139.8978  167.0848 C.ar    1  UNL1        0.2058
     11 N         139.9133  141.0380  167.5514 N.ar    1  UNL1       -0.1297
     12 C         140.4696  143.5479  169.6193 C.3     1  UNL1        0.0298
     13 C         140.5371  142.0824  169.9316 C.3     1  UNL1        0.1427
     14 C         141.3068  141.6050  171.1273 C.3     1  UNL1        0.0917
     15 N         140.7397  140.5275  172.0031 N.3     1  UNL1       -0.3195
     16 H         139.9003  140.8737  172.4678 H       1  UNL1        0.1189
     17 H         141.4308  140.2604  172.7043 H       1  UNL1        0.1189
     18 O         138.2129  138.2247  161.3850 O.3     1  UNL1       -0.4535
     19 C         138.8005  139.0376  160.2698 C.ar    1  UNL1        0.1454
     20 C         137.9707  140.0835  159.5861 C.ar    1  UNL1        0.0384
     21 C         138.5584  140.8965  158.4708 C.ar    1  UNL1        0.0145
     22 C         139.9759  140.6635  158.0393 C.ar    1  UNL1        0.0579
     23 CL        140.5636  141.4764  156.9241 Cl      1  UNL1       -0.0822
     24 C         140.8058  139.6176  158.7230 C.ar    1  UNL1        0.0145
     25 C         140.2181  138.8046  159.8382 C.ar    1  UNL1        0.0384
@<TRIPOS>BOND
     1    13    12    1
     2    13    14    1
     3    14    15    1
     4    13     7    1
     5     7     8   ar
     6     8     9   ar
     7     9    10   ar
     8    10     1    1
     9     1     2   ar
    10     2     3   ar
    11     3     4   ar
    12     4    18    1
    13    18    19    1
    14    19    20   ar
    15    20    21   ar
    16    21    22   ar
    17    22    23    1
    18    22    24   ar
    19    24    25   ar
    20     4     5   ar
    21     5     6   ar
    22    10    11   ar
    23    11     7   ar
    24     6     1   ar
    25    25    19   ar
    26    15    16    1
    27    15    17    1
@<TRIPOS>MOLECULE
*****
 25 27 0 0 0
SMALL
GASTEIGER

@<TRIPOS>ATOM
      1 C         140.9545  145.1098  160.5532 C.ar    1  UNL1        0.0395
      2 C         141.8008  144.0344  161.1674 C.ar    1  UNL1        0.0063
      3 C         141.6159  143.6666  162.6098 C.ar    1  UNL1        0.0376
      4 C         140.5847  144.3743  163.4380 C.ar    1  UNL1        0.1453
      5 C         139.7384  145.4497  162.8238 C.ar    1  UNL1        0.0376
      6 C         139.9233  145.8174  161.3814 C.ar    1  UNL1        0.0063
      7 N         140.6896  146.1846  156.8330 N.ar    1  UNL1       -0.1516
      8 N         142.1583  145.9024  156.9493 N.ar    1  UNL1       -0.0451
      9 N         142.4362  145.4654  158.3570 N.ar    1  UNL1       -0.1077
     10 C         141.1394  145.4776  159.1108 C.ar    1  UNL1        0.2058
     11 N         140.0599  145.9220  158.1689 N.ar    1  UNL1       -0.1297
     12 C         140.0934  145.8633  154.3247 C.3     1  UNL1        0.0298
     13 C         139.9760  146.6480  155.5977 C.3     1  UNL1        0.1427
     14 C         139.1448  147.8961  155.6353 C.3     1  UNL1        0.0917
     15 N         138.6461  148.4259  156.9469 N.3     1  UNL1       -0.3195
     16 H         137.9809  147.7658  157.3495 H       1  UNL1        0.1189
     17 H         138.1861  149.3240  156.7981 H       1  UNL1        0.1189
     18 O         140.3998  144.0065  164.8805 O.3     1  UNL1       -0.4535
     19 C         139.8119  142.6757  165.2457 C.ar    1  UNL1        0.1454
     20 C         138.7071  142.0908  164.4167 C.ar    1  UNL1        0.0384
     21 C         138.1193  140.7600  164.7820 C.ar    1  UNL1        0.0145
     22 C         138.6362  140.0142  165.9764 C.ar    1  UNL1        0.0579
     23 CL        138.0483  138.6834  166.3416 Cl      1  UNL1       -0.0822
     24 C         139.7409  140.5991  166.8054 C.ar    1  UNL1        0.0145
     25 C         140.3288  141.9298  166.4401 C.ar    1  UNL1        0.0384
@<TRIPOS>BOND
     1    13    12    1
     2    13    14    1
     3    14    15    1
     4    13     7    1
     5     7     8   ar
     6     8     9   ar
     7     9    10   ar
     8    10     1    1
     9     1     2   ar
    10     2     3   ar
    11     3     4   ar
    12     4    18    1
    13    18    19    1
    14    19    20   ar
    15    20    21   ar
    16    21    22   ar
    17    22    23    1
    18    22    24   ar
    19    24    25   ar
    20     4     5   ar
    21     5     6   ar
    22    10    11   ar
    23    11     7   ar
    24     6     1   ar
    25    25    19   ar
    26    15    16    1
    27    15    17    1
@<TRIPOS>MOLECULE
*****
 25 27 0 0 0
SMALL
GASTEIGER

@<TRIPOS>ATOM
      1 C         138.8188  139.0299  162.6860 C.ar    1  UNL1        0.0395
      2 C         138.3174  140.2650  163.3738 C.ar    1  UNL1        0.0063
      3 C         138.1688  140.2843  164.8663 C.ar    1  UNL1        0.0376
      4 C         138.5217  139.0685  165.6709 C.ar    1  UNL1        0.1453
      5 C         139.0231  137.8335  164.9831 C.ar    1  UNL1        0.0376
      6 C         139.1716  137.8142  163.4906 C.ar    1  UNL1        0.0063
      7 N         139.8282  138.5832  158.9648 N.ar    1  UNL1       -0.1516
      8 N         138.5637  139.3786  158.8286 N.ar    1  UNL1       -0.0451
      9 N         138.0317  139.6427  160.2060 N.ar    1  UNL1       -0.1077
     10 C         138.9673  139.0106  161.1934 C.ar    1  UNL1        0.2058
     11 N         140.0776  138.3558  160.4263 N.ar    1  UNL1       -0.1297
     12 C         142.1651  137.9144  158.0475 C.3     1  UNL1        0.0298
     13 C         140.6916  138.1000  157.8374 C.3     1  UNL1        0.1427
     14 C         140.0815  137.8025  156.4997 C.3     1  UNL1        0.0917
     15 N         138.9240  136.8541  156.3976 N.3     1  UNL1       -0.3195
     16 H         139.2288  135.9163  156.6585 H       1  UNL1        0.1189
     17 H         138.5762  136.8441  155.4387 H       1  UNL1        0.1189
     18 O         138.3731  139.0879  167.1635 O.3     1  UNL1       -0.4535
     19 C         139.3815  139.8085  168.0083 C.ar    1  UNL1        0.1454
     20 C         139.0145  140.2638  169.3896 C.ar    1  UNL1        0.0384
     21 C         140.0231  140.9845  170.2344 C.ar    1  UNL1        0.0145
     22 C         141.3985  141.2497  169.6979 C.ar    1  UNL1        0.0579
     23 CL        142.4069  141.9703  170.5427 Cl      1  UNL1       -0.0822
     24 C         141.7655  140.7943  168.3166 C.ar    1  UNL1        0.0145
     25 C         140.7570  140.0737  167.4718 C.ar    1  UNL1        0.0384
@<TRIPOS>BOND
     1    13    12    1
     2    13    14    1
     3    14    15    1
     4    13     7    1
     5     7     8   ar
     6     8     9   ar
     7     9    10   ar
     8    10     1    1
     9     1     2   ar
    10     2     3   ar
    11     3     4   ar
    12     4    18    1
    13    18    19    1
    14    19    20   ar
    15    20    21   ar
    16    21    22   ar
    17    22    23    1
    18    22    24   ar
    19    24    25   ar
    20     4     5   ar
    21     5     6   ar
    22    10    11   ar
    23    11     7   ar
    24     6     1   ar
    25    25    19   ar
    26    15    16    1
    27    15    17    1
@<TRIPOS>MOLECULE
*****
 25 27 0 0 0
SMALL
GASTEIGER

@<TRIPOS>ATOM
      1 C         142.9811  138.9711  165.4793 C.ar    1  UNL1        0.0395
      2 C         142.0818  138.1749  164.5808 C.ar    1  UNL1        0.0063
      3 C         142.4313  138.0018  163.1325 C.ar    1  UNL1        0.0376
      4 C         143.6801  138.6248  162.5826 C.ar    1  UNL1        0.1453
      5 C         144.5793  139.4210  163.4811 C.ar    1  UNL1        0.0376
      6 C         144.2298  139.5942  164.9294 C.ar    1  UNL1        0.0063
      7 N         141.5133  139.8451  168.9646 N.ar    1  UNL1       -0.1516
      8 N         142.6744  138.9766  169.3487 N.ar    1  UNL1       -0.0451
      9 N         143.3656  138.5435  168.0898 N.ar    1  UNL1       -0.1077
     10 C         142.6316  139.1444  166.9278 C.ar    1  UNL1        0.2058
     11 N         141.4868  139.9488  167.4685 N.ar    1  UNL1       -0.1297
     12 C         139.0721  140.3972  169.6618 C.3     1  UNL1        0.0298
     13 C         140.5480  140.4957  169.9107 C.3     1  UNL1        0.1427
     14 C         141.0587  141.2448  171.1057 C.3     1  UNL1        0.0917
     15 N         142.2565  140.7381  171.8530 N.3     1  UNL1       -0.3195
     16 H         142.0298  139.8469  172.2943 H       1  UNL1        0.1189
     17 H         142.5216  141.4144  172.5690 H       1  UNL1        0.1189
     18 O         144.0296  138.4516  161.1341 O.3     1  UNL1       -0.4535
     19 C         143.4095  139.3450  160.1010 C.ar    1  UNL1        0.1454
     20 C         142.4705  138.7727  159.0808 C.ar    1  UNL1        0.0384
     21 C         141.8504  139.6662  158.0476 C.ar    1  UNL1        0.0145
     22 C         142.1694  141.1318  158.0347 C.ar    1  UNL1        0.0579
     23 CL        141.5494  142.0251  157.0015 Cl      1  UNL1       -0.0822
     24 C         143.1085  141.7040  159.0548 C.ar    1  UNL1        0.0145
     25 C         143.7285  140.8106  160.0880 C.ar    1  UNL1        0.0384
@<TRIPOS>BOND
     1    13    12    1
     2    13    14    1
     3    14    15    1
     4    13     7    1
     5     7     8   ar
     6     8     9   ar
     7     9    10   ar
     8    10     1    1
     9     1     2   ar
    10     2     3   ar
    11     3     4   ar
    12     4    18    1
    13    18    19    1
    14    19    20   ar
    15    20    21   ar
    16    21    22   ar
    17    22    23    1
    18    22    24   ar
    19    24    25   ar
    20     4     5   ar
    21     5     6   ar
    22    10    11   ar
    23    11     7   ar
    24     6     1   ar
    25    25    19   ar
    26    15    16    1
    27    15    17    1
@<TRIPOS>MOLECULE
*****
 25 27 0 0 0
SMALL
GASTEIGER

@<TRIPOS>ATOM
      1 C         143.1638  138.6843  162.4907 C.ar    1  UNL1        0.0395
      2 C         142.0339  138.0364  163.2345 C.ar    1  UNL1        0.0063
      3 C         142.0009  138.0785  164.7335 C.ar    1  UNL1        0.0376
      4 C         143.0980  138.7685  165.4887 C.ar    1  UNL1        0.1453
      5 C         144.2280  139.4164  164.7449 C.ar    1  UNL1        0.0376
      6 C         144.2609  139.3743  163.2459 C.ar    1  UNL1        0.0063
      7 N         142.6698  138.0992  158.6855 N.ar    1  UNL1       -0.1516
      8 N         143.8253  139.0558  158.6841 N.ar    1  UNL1       -0.0451
      9 N         144.1510  139.3913  160.1093 N.ar    1  UNL1       -0.1077
     10 C         143.1968  138.6422  160.9916 C.ar    1  UNL1        0.2058
     11 N         142.2814  137.8437  160.1116 N.ar    1  UNL1       -0.1297
     12 C         140.5517  137.7111  157.2320 C.3     1  UNL1        0.0298
     13 C         142.0174  137.5030  157.4736 C.3     1  UNL1        0.1427
     14 C         142.8306  136.6986  156.5032 C.3     1  UNL1        0.0917
     15 N         144.1335  137.2360  155.9902 N.3     1  UNL1       -0.3195
     16 H         143.9592  138.0643  155.4211 H       1  UNL1        0.1189
     17 H         144.5950  136.5248  155.4230 H       1  UNL1        0.1189
     18 O         143.0650  138.8105  166.9878 O.3     1  UNL1       -0.4535
     19 C         142.5169  140.0159  167.6924 C.ar    1  UNL1        0.1454
     20 C         141.7462  141.0481  166.9238 C.ar    1  UNL1        0.0384
     21 C         141.1980  142.2535  167.6284 C.ar    1  UNL1        0.0145
     22 C         141.4205  142.4268  169.1016 C.ar    1  UNL1        0.0579
     23 CL        140.8723  143.6321  169.8062 Cl      1  UNL1       -0.0822
     24 C         142.1911  141.3946  169.8703 C.ar    1  UNL1        0.0145
     25 C         142.7393  140.1892  169.1657 C.ar    1  UNL1        0.0384
@<TRIPOS>BOND
     1    13    12    1
     2    13    14    1
     3    14    15    1
     4    13     7    1
     5     7     8   ar
     6     8     9   ar
     7     9    10   ar
     8    10     1    1
     9     1     2   ar
    10     2     3   ar
    11     3     4   ar
    12     4    18    1
    13    18    19    1
    14    19    20   ar
    15    20    21   ar
    16    21    22   ar
    17    22    23    1
    18    22    24   ar
    19    24    25   ar
    20     4     5   ar
    21     5     6   ar
    22    10    11   ar
    23    11     7   ar
    24     6     1   ar
    25    25    19   ar
    26    15    16    1
    27    15    17    1
@<TRIPOS>MOLECULE
*****
 25 27 0 0 0
SMALL
GASTEIGER

@<TRIPOS>ATOM
      1 C         142.8437  138.4827  162.6966 C.ar    1  UNL1        0.0395
      2 C         144.0803  139.1267  163.2497 C.ar    1  UNL1        0.0063
      3 C         144.2966  139.1844  164.7329 C.ar    1  UNL1        0.0376
      4 C         143.2762  138.5981  165.6630 C.ar    1  UNL1        0.1453
      5 C         142.0396  137.9541  165.1099 C.ar    1  UNL1        0.0376
      6 C         141.8233  137.8965  163.6267 C.ar    1  UNL1        0.0063
      7 N         141.5539  138.3884  159.0370 N.ar    1  UNL1       -0.1516
      8 N         143.0352  138.2839  158.8250 N.ar    1  UNL1       -0.0451
      9 N         143.6986  138.3066  160.1701 N.ar    1  UNL1       -0.1077
     10 C         142.6273  138.4250  161.2134 C.ar    1  UNL1        0.2058
     11 N         141.3019  138.4756  160.5131 N.ar    1  UNL1       -0.1297
     12 C         139.4603  139.4763  157.9491 C.3     1  UNL1        0.0298
     13 C         140.5082  138.4031  157.9616 C.3     1  UNL1        0.1427
     14 C         140.5104  137.3446  156.8988 C.3     1  UNL1        0.0917
     15 N         139.2163  136.8829  156.2973 N.3     1  UNL1       -0.3195
     16 H         138.6606  136.4088  157.0092 H       1  UNL1        0.1189
     17 H         139.4086  136.2381  155.5307 H       1  UNL1        0.1189
     18 O         143.4926  138.6558  167.1462 O.3     1  UNL1       -0.4535
     19 C         142.6383  139.5506  167.9945 C.ar    1  UNL1        0.1454
     20 C         142.3525  139.1832  169.4204 C.ar    1  UNL1        0.0384
     21 C         141.4982  140.0781  170.2687 C.ar    1  UNL1        0.0145
     22 C         140.9297  141.3402  169.6910 C.ar    1  UNL1        0.0579
     23 CL        140.0755  142.2350  170.5393 Cl      1  UNL1       -0.0822
     24 C         141.2155  141.7076  168.2651 C.ar    1  UNL1        0.0145
     25 C         142.0698  140.8128  167.4168 C.ar    1  UNL1        0.0384
@<TRIPOS>BOND
     1    13    12    1
     2    13    14    1
     3    14    15    1
     4    13     7    1
     5     7     8   ar
     6     8     9   ar
     7     9    10   ar
     8    10     1    1
     9     1     2   ar
    10     2     3   ar
    11     3     4   ar
    12     4    18    1
    13    18    19    1
    14    19    20   ar
    15    20    21   ar
    16    21    22   ar
    17    22    23    1
    18    22    24   ar
    19    24    25   ar
    20     4     5   ar
    21     5     6   ar
    22    10    11   ar
    23    11     7   ar
    24     6     1   ar
    25    25    19   ar
    26    15    16    1
    27    15    17    1
@<TRIPOS>MOLECULE
*****
 25 27 0 0 0
SMALL
GASTEIGER

@<TRIPOS>ATOM
      1 C         138.9135  140.2238  165.4392 C.ar    1  UNL1        0.0395
      2 C         139.0398  138.9796  164.6110 C.ar    1  UNL1        0.0063
      3 C         138.5193  138.9589  163.2044 C.ar    1  UNL1        0.0376
      4 C         137.8724  140.1825  162.6260 C.ar    1  UNL1        0.1453
      5 C         137.7460  141.4266  163.4542 C.ar    1  UNL1        0.0376
      6 C         138.2666  141.4473  164.8608 C.ar    1  UNL1        0.0063
      7 N         140.7831  140.7433  168.8008 N.ar    1  UNL1       -0.1516
      8 N         139.6868  139.8092  169.2202 N.ar    1  UNL1       -0.0451
      9 N         138.8531  139.5009  168.0120 N.ar    1  UNL1       -0.1077
     10 C         139.4340  140.2445  166.8459 C.ar    1  UNL1        0.2058
     11 N         140.6268  141.0123  167.3334 N.ar    1  UNL1       -0.1297
     12 C         142.8167  142.3209  169.1550 C.3     1  UNL1        0.0298
     13 C         141.8485  141.3091  169.6923 C.3     1  UNL1        0.1427
     14 C         141.9457  140.8631  171.1211 C.3     1  UNL1        0.0917
     15 N         140.6995  140.6705  171.9332 N.3     1  UNL1       -0.3195
     16 H         140.2381  141.5704  172.0664 H       1  UNL1        0.1189
     17 H         140.9432  140.2757  172.8416 H       1  UNL1        0.1189
     18 O         137.3519  140.1618  161.2193 O.3     1  UNL1       -0.4535
     19 C         138.2113  140.6571  160.0942 C.ar    1  UNL1        0.1454
     20 C         138.4350  142.1293  159.9134 C.ar    1  UNL1        0.0384
     21 C         139.2945  142.6247  158.7882 C.ar    1  UNL1        0.0145
     22 C         139.9303  141.6479  157.8439 C.ar    1  UNL1        0.0579
     23 CL        140.7897  142.1433  156.7188 Cl      1  UNL1       -0.0822
     24 C         139.7066  140.1757  158.0248 C.ar    1  UNL1        0.0145
     25 C         138.8471  139.6803  159.1499 C.ar    1  UNL1        0.0384
@<TRIPOS>BOND
     1    13    12    1
     2    13    14    1
     3    14    15    1
     4    13     7    1
     5     7     8   ar
     6     8     9   ar
     7     9    10   ar
     8    10     1    1
     9     1     2   ar
    10     2     3   ar
    11     3     4   ar
    12     4    18    1
    13    18    19    1
    14    19    20   ar
    15    20    21   ar
    16    21    22   ar
    17    22    23    1
    18    22    24   ar
    19    24    25   ar
    20     4     5   ar
    21     5     6   ar
    22    10    11   ar
    23    11     7   ar
    24     6     1   ar
    25    25    19   ar
    26    15    16    1
    27    15    17    1
@<TRIPOS>MOLECULE
*****
 25 27 0 0 0
SMALL
GASTEIGER

@<TRIPOS>ATOM
      1 C         143.7819  139.5356  162.1603 C.ar    1  UNL1        0.0395
      2 C         144.7188  140.2369  163.0985 C.ar    1  UNL1        0.0063
      3 C         144.6614  139.9495  164.5696 C.ar    1  UNL1        0.0376
      4 C         143.6670  138.9609  165.1024 C.ar    1  UNL1        0.1453
      5 C         142.7301  138.2597  164.1641 C.ar    1  UNL1        0.0376
      6 C         142.7875  138.5470  162.6931 C.ar    1  UNL1        0.0063
      7 N         144.0910  140.9823  158.5718 N.ar    1  UNL1       -0.1516
      8 N         143.7643  139.5479  158.2788 N.ar    1  UNL1       -0.0451
      9 N         143.6088  138.8314  159.5874 N.ar    1  UNL1       -0.1077
     10 C         143.8393  139.8230  160.6891 C.ar    1  UNL1        0.2058
     11 N         144.1373  141.1523  160.0614 N.ar    1  UNL1       -0.1297
     12 C         143.2108  142.9739  157.1544 C.3     1  UNL1        0.0298
     13 C         144.3295  142.0579  157.5538 C.3     1  UNL1        0.1427
     14 C         145.6866  142.2175  156.9351 C.3     1  UNL1        0.0917
     15 N         146.7336  143.0403  157.6255 N.3     1  UNL1       -0.3195
     16 H         146.4396  144.0168  157.6463 H       1  UNL1        0.1189
     17 H         147.6159  142.9615  157.1200 H       1  UNL1        0.1189
     18 O         143.6096  138.6735  166.5735 O.3     1  UNL1       -0.4535
     19 C         142.4850  139.2213  167.4014 C.ar    1  UNL1        0.1454
     20 C         141.2908  139.8345  166.7323 C.ar    1  UNL1        0.0384
     21 C         140.1662  140.3822  167.5602 C.ar    1  UNL1        0.0145
     22 C         140.2359  140.3167  169.0571 C.ar    1  UNL1        0.0579
     23 CL        139.1113  140.8644  169.8849 Cl      1  UNL1       -0.0822
     24 C         141.4302  139.7035  169.7262 C.ar    1  UNL1        0.0145
     25 C         142.5547  139.1558  168.8984 C.ar    1  UNL1        0.0384
@<TRIPOS>BOND
     1    13    12    1
     2    13    14    1
     3    14    15    1
     4    13     7    1
     5     7     8   ar
     6     8     9   ar
     7     9    10   ar
     8    10     1    1
     9     1     2   ar
    10     2     3   ar
    11     3     4   ar
    12     4    18    1
    13    18    19    1
    14    19    20   ar
    15    20    21   ar
    16    21    22   ar
    17    22    23    1
    18    22    24   ar
    19    24    25   ar
    20     4     5   ar
    21     5     6   ar
    22    10    11   ar
    23    11     7   ar
    24     6     1   ar
    25    25    19   ar
    26    15    16    1
    27    15    17    1
