@<TRIPOS>MOLECULE
*****
 58 63 0 0 0
SMALL
GASTEIGER

@<TRIPOS>ATOM
      1 C         141.6450  140.3402  159.9866 C.ar    1  UNL1        0.0172
      2 C         142.7749  139.3542  160.0144 C.ar    1  UNL1        0.0015
      3 C         142.8023  138.2172  159.0364 C.ar    1  UNL1        0.0000
      4 C         141.6998  138.0664  158.0305 C.ar    1  UNL1        0.0000
      5 C         140.5698  139.0525  158.0028 C.ar    1  UNL1        0.0000
      6 C         140.5424  140.1894  158.9808 C.ar    1  UNL1        0.0015
      7 C         140.9780  142.9227  162.8065 C.ar    1  UNL1        0.1353
      8 N         142.1725  143.5308  162.1332 N.ar    1  UNL1       -0.2279
      9 C         142.5678  142.6375  160.9949 C.ar    1  UNL1        0.1171
     10 C         141.6175  141.4772  160.9647 C.ar    1  UNL1        0.0769
     11 N         140.6350  141.6536  162.0844 N.ar    1  UNL1       -0.3394
     12 H         139.8949  141.0434  162.3063 H       1  UNL1        0.1671
     13 C         140.8508  141.5916  165.7833 C.2     1  UNL1        0.2439
     14 O         141.6536  140.7993  164.7946 O.2     1  UNL1       -0.2731
     15 N         140.1952  142.8733  165.3618 N.am    1  UNL1       -0.2730
     16 C         139.3660  143.7681  166.2346 C.3     1  UNL1        0.0939
     17 C         138.9120  144.9329  165.4058 C.3     1  UNL1        0.0237
     18 C         139.4606  144.7580  164.0207 C.3     1  UNL1        0.0293
     19 C         140.2536  143.4851  163.9935 C.3     1  UNL1        0.1319
     20 C         140.7034  141.1023  167.1936 C.3     1  UNL1        0.1512
     21 C         142.7253  140.5956  168.7445 C.2     1  UNL1        0.4021
     22 O         142.8022  139.2041  168.1896 O.2     1  UNL1       -0.2264
     23 N         141.6759  141.5447  168.2465 N.am    1  UNL1       -0.2640
     24 H         141.6254  142.4580  168.6107 H       1  UNL1        0.1532
     25 C         143.9664  142.4993  170.0036 C.3     1  UNL1        0.2573
     26 O         143.6977  141.0380  169.7974 O.3     1  UNL1       -0.4306
     27 C         139.5835  140.1706  167.5509 C.3     1  UNL1        0.0270
     28 C         139.1457  140.0373  168.9794 C.3     1  UNL1        0.0022
     29 C         138.9013  139.3721  166.4799 C.3     1  UNL1        0.0022
     30 C         141.7272  136.9294  157.0524 C.ar    1  UNL1        0.0000
     31 C         140.6779  136.8329  155.9850 C.ar    1  UNL1        0.0000
     32 C         140.7053  135.6959  155.0069 C.ar    1  UNL1        0.0015
     33 C         141.7821  134.6555  155.0963 C.ar    1  UNL1        0.0172
     34 C         142.8315  134.7521  156.1639 C.ar    1  UNL1        0.0015
     35 C         142.8040  135.8890  157.1419 C.ar    1  UNL1        0.0000
     36 C         141.8096  133.5186  154.1183 C.ar    1  UNL1        0.0769
     37 C         142.0519  133.6309  152.6423 C.ar    1  UNL1        0.1171
     38 N         141.9917  132.2514  152.0563 N.ar    1  UNL1       -0.2279
     39 C         141.7121  131.2865  153.1703 C.ar    1  UNL1        0.1353
     40 N         141.5996  132.0696  154.4446 N.ar    1  UNL1       -0.3394
     41 H         141.4195  131.6979  155.3383 H       1  UNL1        0.1671
     42 C         141.5700  129.7995  153.0338 C.3     1  UNL1        0.1319
     43 C         140.5382  129.0840  152.2131 C.3     1  UNL1        0.0293
     44 C         140.7653  127.6092  152.3661 C.3     1  UNL1        0.0237
     45 C         141.9375  127.4132  153.2814 C.3     1  UNL1        0.0939
     46 N         142.4348  128.7668  153.6940 N.am    1  UNL1       -0.2730
     47 C         143.5935  129.0399  154.6066 C.2     1  UNL1        0.2439
     48 O         143.9762  130.4537  154.9304 O.2     1  UNL1       -0.2731
     49 C         144.3695  127.8992  155.1954 C.3     1  UNL1        0.1512
     50 N         143.8711  127.2124  156.4322 N.am    1  UNL1       -0.2640
     51 C         144.1186  127.8222  157.7801 C.2     1  UNL1        0.4021
     52 O         144.8645  129.1188  157.8912 O.2     1  UNL1       -0.2264
     53 H         143.3816  126.3614  156.3593 H       1  UNL1        0.1532
     54 O         143.6202  127.1353  159.0170 O.3     1  UNL1       -0.4306
     55 C         142.3080  127.5386  159.6217 C.3     1  UNL1        0.2573
     56 C         145.6439  127.4455  154.5474 C.3     1  UNL1        0.0270
     57 C         145.8397  127.6243  153.0711 C.3     1  UNL1        0.0022
     58 C         146.7226  126.8128  155.3758 C.3     1  UNL1        0.0022
@<TRIPOS>BOND
     1    25    26    1
     2    26    21    1
     3    21    22    2
     4    21    23   am
     5    20    23    1
     6    20    13    1
     7    13    14    2
     8    13    15   am
     9    15    16    1
    10    16    17    1
    11    17    18    1
    12    18    19    1
    13    19     7    1
    14     7     8   ar
    15     8     9   ar
    16     9    10   ar
    17    10     1    1
    18     1     2   ar
    19     2     3   ar
    20     3     4   ar
    21     4    30    1
    22    30    31   ar
    23    31    32   ar
    24    32    33   ar
    25    33    36    1
    26    36    37   ar
    27    37    38   ar
    28    38    39   ar
    29    42    39    1
    30    42    43    1
    31    43    44    1
    32    44    45    1
    33    45    46    1
    34    46    47   am
    35    47    48    2
    36    47    49    1
    37    49    50    1
    38    50    51   am
    39    51    52    2
    40    51    54    1
    41    54    55    1
    42    49    56    1
    43    56    57    1
    44    56    58    1
    45    39    40   ar
    46    33    34   ar
    47    34    35   ar
    48     4     5   ar
    49     5     6   ar
    50    10    11   ar
    51    20    27    1
    52    27    28    1
    53    27    29    1
    54    19    15    1
    55    11     7   ar
    56     6     1   ar
    57    35    30   ar
    58    40    36   ar
    59    46    42    1
    60    23    24    1
    61    50    53    1
    62    40    41    1
    63    11    12    1
@<TRIPOS>MOLECULE
*****
 58 63 0 0 0
SMALL
GASTEIGER

@<TRIPOS>ATOM
      1 C         141.9630  134.4405  155.1133 C.ar    1  UNL1        0.0172
      2 C         140.8642  135.4567  155.0129 C.ar    1  UNL1        0.0015
      3 C         140.8231  136.6134  155.9670 C.ar    1  UNL1        0.0000
      4 C         141.8806  136.7540  157.0214 C.ar    1  UNL1        0.0000
      5 C         142.9794  135.7378  157.1217 C.ar    1  UNL1        0.0000
      6 C         143.0206  134.5811  156.1677 C.ar    1  UNL1        0.0015
      7 C         141.9594  131.0291  153.2618 C.ar    1  UNL1        0.1353
      8 N         142.1759  131.9781  152.1205 N.ar    1  UNL1       -0.2279
      9 C         142.2036  133.3715  152.6751 C.ar    1  UNL1        0.1171
     10 C         142.0042  133.2837  154.1592 C.ar    1  UNL1        0.0769
     11 N         141.8533  131.8360  154.5218 N.ar    1  UNL1       -0.3394
     12 H         141.7098  131.4783  155.4277 H       1  UNL1        0.1671
     13 C         143.7961  128.8774  154.8886 C.2     1  UNL1        0.2439
     14 O         144.1191  130.3098  155.1948 O.2     1  UNL1       -0.2731
     15 N         142.7098  128.5465  153.9086 N.am    1  UNL1       -0.2730
     16 C         142.2769  127.1683  153.5043 C.3     1  UNL1        0.0939
     17 C         141.1652  127.3057  152.5067 C.3     1  UNL1        0.0237
     18 C         140.9109  128.7686  152.2944 C.3     1  UNL1        0.0293
     19 C         141.8655  129.5354  153.1609 C.3     1  UNL1        0.1319
     20 C         144.5594  127.7759  155.5623 C.3     1  UNL1        0.1512
     21 C         144.2288  127.8984  158.1364 C.2     1  UNL1        0.4021
     22 O         144.9324  129.2228  158.1637 O.2     1  UNL1       -0.2264
     23 N         144.0422  127.1749  156.8357 N.am    1  UNL1       -0.2640
     24 H         143.5804  126.3057  156.8178 H       1  UNL1        0.1532
     25 C         142.2690  127.4638  159.7857 C.3     1  UNL1        0.2573
     26 O         143.7116  127.2975  159.4097 O.3     1  UNL1       -0.4306
     27 C         145.8399  127.2752  154.9627 C.3     1  UNL1        0.0270
     28 C         146.8524  126.5832  155.8264 C.3     1  UNL1        0.0022
     29 C         146.1081  127.4666  153.4993 C.3     1  UNL1        0.0022
     30 C         141.8394  137.9108  157.9754 C.ar    1  UNL1        0.0000
     31 C         140.9944  139.1102  157.6637 C.ar    1  UNL1        0.0000
     32 C         140.9532  140.2671  158.6178 C.ar    1  UNL1        0.0015
     33 C         141.7570  140.2243  159.8835 C.ar    1  UNL1        0.0172
     34 C         142.6020  139.0248  160.1952 C.ar    1  UNL1        0.0015
     35 C         142.6432  137.8680  159.2411 C.ar    1  UNL1        0.0000
     36 C         141.7158  141.3810  160.8376 C.ar    1  UNL1        0.0769
     37 C         142.7028  142.5089  160.8989 C.ar    1  UNL1        0.1171
     38 N         142.2774  143.4380  161.9971 N.ar    1  UNL1       -0.2279
     39 C         141.0274  142.8842  162.6144 C.ar    1  UNL1        0.1353
     40 N         140.6804  141.6130  161.8978 N.ar    1  UNL1       -0.3394
     41 H         139.9085  141.0327  162.0896 H       1  UNL1        0.1671
     42 C         140.2594  143.4946  163.7492 C.3     1  UNL1        0.1319
     43 C         139.4136  144.7312  163.6770 C.3     1  UNL1        0.0293
     44 C         138.8338  144.9764  165.0385 C.3     1  UNL1        0.0237
     45 C         139.3212  143.8912  165.9521 C.3     1  UNL1        0.0939
     46 N         140.2023  142.9754  165.1553 N.am    1  UNL1       -0.2730
     47 C         140.9032  141.7548  165.6735 C.2     1  UNL1        0.2439
     48 O         141.7559  140.9321  164.7536 O.2     1  UNL1       -0.2731
     49 C         140.7516  141.3567  167.1119 C.3     1  UNL1        0.1512
     50 N         141.6338  141.9720  168.1573 N.am    1  UNL1       -0.2640
     51 C         142.7801  141.1897  168.7264 C.2     1  UNL1        0.4021
     52 O         143.0443  139.7921  168.2501 O.2     1  UNL1       -0.2264
     53 H         141.4604  142.8893  168.4699 H       1  UNL1        0.1532
     54 O         143.6624  141.8051  169.7719 O.3     1  UNL1       -0.4306
     55 C         143.1880  142.9996  170.5453 C.3     1  UNL1        0.2573
     56 C         139.7178  140.3433  167.5046 C.3     1  UNL1        0.0270
     57 C         139.0937  139.4653  166.4609 C.3     1  UNL1        0.0022
     58 C         139.3080  140.2080  168.9412 C.3     1  UNL1        0.0022
@<TRIPOS>BOND
     1    25    26    1
     2    26    21    1
     3    21    22    2
     4    21    23   am
     5    20    23    1
     6    20    13    1
     7    13    14    2
     8    13    15   am
     9    15    16    1
    10    16    17    1
    11    17    18    1
    12    18    19    1
    13    19     7    1
    14     7     8   ar
    15     8     9   ar
    16     9    10   ar
    17    10     1    1
    18     1     2   ar
    19     2     3   ar
    20     3     4   ar
    21     4    30    1
    22    30    31   ar
    23    31    32   ar
    24    32    33   ar
    25    33    36    1
    26    36    37   ar
    27    37    38   ar
    28    38    39   ar
    29    42    39    1
    30    42    43    1
    31    43    44    1
    32    44    45    1
    33    45    46    1
    34    46    47   am
    35    47    48    2
    36    47    49    1
    37    49    50    1
    38    50    51   am
    39    51    52    2
    40    51    54    1
    41    54    55    1
    42    49    56    1
    43    56    57    1
    44    56    58    1
    45    39    40   ar
    46    33    34   ar
    47    34    35   ar
    48     4     5   ar
    49     5     6   ar
    50    10    11   ar
    51    20    27    1
    52    27    28    1
    53    27    29    1
    54    19    15    1
    55    11     7   ar
    56     6     1   ar
    57    35    30   ar
    58    40    36   ar
    59    46    42    1
    60    23    24    1
    61    50    53    1
    62    40    41    1
    63    11    12    1
@<TRIPOS>MOLECULE
*****
 58 63 0 0 0
SMALL
GASTEIGER

@<TRIPOS>ATOM
      1 C         141.6629  140.6171  160.7028 C.ar    1  UNL1        0.0172
      2 C         140.4131  139.8250  160.4572 C.ar    1  UNL1        0.0015
      3 C         140.3901  138.7728  159.3884 C.ar    1  UNL1        0.0000
      4 C         141.6168  138.5128  158.5653 C.ar    1  UNL1        0.0000
      5 C         142.8666  139.3050  158.8110 C.ar    1  UNL1        0.0000
      6 C         142.8897  140.3571  159.8797 C.ar    1  UNL1        0.0015
      7 C         141.1821  142.9230  163.7879 C.ar    1  UNL1        0.1353
      8 N         142.2609  143.6541  163.0449 N.ar    1  UNL1       -0.2279
      9 C         142.5722  142.8793  161.7988 C.ar    1  UNL1        0.1171
     10 C         141.6860  141.6694  161.7717 C.ar    1  UNL1        0.0769
     11 N         140.8269  141.6964  163.0010 N.ar    1  UNL1       -0.3394
     12 H         140.1489  141.0267  163.2480 H       1  UNL1        0.1671
     13 C         142.0467  141.8633  166.7508 C.2     1  UNL1        0.2439
     14 O         142.8437  141.2621  165.6313 O.2     1  UNL1       -0.2731
     15 N         140.9642  142.8574  166.4511 N.am    1  UNL1       -0.2730
     16 C         140.0890  143.5391  167.4608 C.3     1  UNL1        0.0939
     17 C         139.1507  144.4474  166.7229 C.3     1  UNL1        0.0237
     18 C         139.4460  144.3272  165.2572 C.3     1  UNL1        0.0293
     19 C         140.5668  143.3446  165.0893 C.3     1  UNL1        0.1319
     20 C         142.3322  141.4703  168.1700 C.3     1  UNL1        0.1512
     21 C         142.9060  143.0751  170.1309 C.2     1  UNL1        0.4021
     22 O         141.4522  143.1542  170.4917 O.2     1  UNL1       -0.2264
     23 N         143.3460  142.2332  168.9701 N.am    1  UNL1       -0.2640
     24 H         144.3002  142.1813  168.7333 H       1  UNL1        0.1532
     25 C         145.3744  143.7536  170.5742 C.3     1  UNL1        0.2573
     26 O         143.9199  143.8380  170.9310 O.3     1  UNL1       -0.4306
     27 C         141.6037  140.3145  168.7891 C.3     1  UNL1        0.0270
     28 C         142.3350  139.0385  169.0843 C.3     1  UNL1        0.0022
     29 C         140.1440  140.4345  169.1131 C.3     1  UNL1        0.0022
     30 C         141.5937  137.4605  157.4965 C.ar    1  UNL1        0.0000
     31 C         140.4166  137.3554  156.5728 C.ar    1  UNL1        0.0000
     32 C         140.3935  136.3032  155.5039 C.ar    1  UNL1        0.0015
     33 C         141.5476  135.3561  155.3589 C.ar    1  UNL1        0.0172
     34 C         142.7248  135.4612  156.2826 C.ar    1  UNL1        0.0015
     35 C         142.7478  136.5134  157.3514 C.ar    1  UNL1        0.0000
     36 C         141.5245  134.3038  154.2901 C.ar    1  UNL1        0.0769
     37 C         141.7438  134.5315  152.8238 C.ar    1  UNL1        0.1171
     38 N         141.6329  133.2076  152.1274 N.ar    1  UNL1       -0.2279
     39 C         141.3452  132.1617  153.1635 C.ar    1  UNL1        0.1353
     40 N         141.2782  132.8392  154.5000 N.ar    1  UNL1       -0.3394
     41 H         141.1033  132.3997  155.3635 H       1  UNL1        0.1671
     42 C         141.1574  130.6956  152.9078 C.3     1  UNL1        0.1319
     43 C         140.1541  130.0847  151.9750 C.3     1  UNL1        0.0293
     44 C         140.3166  128.5946  152.0307 C.3     1  UNL1        0.0237
     45 C         141.4204  128.2845  152.9979 C.3     1  UNL1        0.0939
     46 N         141.9400  129.5830  153.5399 N.am    1  UNL1       -0.2730
     47 C         143.0478  129.7411  154.5388 C.2     1  UNL1        0.2439
     48 O         143.4610  131.1107  154.9900 O.2     1  UNL1       -0.2731
     49 C         143.7425  128.5297  155.0865 C.3     1  UNL1        0.1512
     50 N         143.2823  127.9210  156.3778 N.am    1  UNL1       -0.2640
     51 C         143.7677  128.4767  157.6838 C.2     1  UNL1        0.4021
     52 O         144.7132  129.6410  157.6984 O.2     1  UNL1       -0.2264
     53 H         142.6617  127.1568  156.3682 H       1  UNL1        0.1532
     54 O         143.3075  127.8680  158.9753 O.3     1  UNL1       -0.4306
     55 C         144.1835  127.9366  160.1909 C.3     1  UNL1        0.2573
     56 C         144.8973  127.9269  154.3428 C.3     1  UNL1        0.0270
     57 C         145.6840  126.8081  154.9585 C.3     1  UNL1        0.0022
     58 C         145.2653  128.4431  152.9833 C.3     1  UNL1        0.0022
@<TRIPOS>BOND
     1    25    26    1
     2    26    21    1
     3    21    22    2
     4    21    23   am
     5    20    23    1
     6    20    13    1
     7    13    14    2
     8    13    15   am
     9    15    16    1
    10    16    17    1
    11    17    18    1
    12    18    19    1
    13    19     7    1
    14     7     8   ar
    15     8     9   ar
    16     9    10   ar
    17    10     1    1
    18     1     2   ar
    19     2     3   ar
    20     3     4   ar
    21     4    30    1
    22    30    31   ar
    23    31    32   ar
    24    32    33   ar
    25    33    36    1
    26    36    37   ar
    27    37    38   ar
    28    38    39   ar
    29    42    39    1
    30    42    43    1
    31    43    44    1
    32    44    45    1
    33    45    46    1
    34    46    47   am
    35    47    48    2
    36    47    49    1
    37    49    50    1
    38    50    51   am
    39    51    52    2
    40    51    54    1
    41    54    55    1
    42    49    56    1
    43    56    57    1
    44    56    58    1
    45    39    40   ar
    46    33    34   ar
    47    34    35   ar
    48     4     5   ar
    49     5     6   ar
    50    10    11   ar
    51    20    27    1
    52    27    28    1
    53    27    29    1
    54    19    15    1
    55    11     7   ar
    56     6     1   ar
    57    35    30   ar
    58    40    36   ar
    59    46    42    1
    60    23    24    1
    61    50    53    1
    62    40    41    1
    63    11    12    1
@<TRIPOS>MOLECULE
*****
 58 63 0 0 0
SMALL
GASTEIGER

@<TRIPOS>ATOM
      1 C         142.1931  140.1853  159.9620 C.ar    1  UNL1        0.0172
      2 C         142.0358  140.4682  158.4974 C.ar    1  UNL1        0.0015
      3 C         141.9174  139.3339  157.5230 C.ar    1  UNL1        0.0000
      4 C         141.9563  137.9169  158.0133 C.ar    1  UNL1        0.0000
      5 C         142.1135  137.6340  159.4779 C.ar    1  UNL1        0.0000
      6 C         142.2319  138.7682  160.4523 C.ar    1  UNL1        0.0015
      7 C         142.9276  142.6408  162.8769 C.ar    1  UNL1        0.1353
      8 N         142.0599  143.4890  161.9951 N.ar    1  UNL1       -0.2279
      9 C         141.6791  142.6724  160.7958 C.ar    1  UNL1        0.1171
     10 C         142.3115  141.3196  160.9365 C.ar    1  UNL1        0.0769
     11 N         143.0831  141.3000  162.2226 N.ar    1  UNL1       -0.3394
     12 H         143.6008  140.5405  162.5754 H       1  UNL1        0.1671
     13 C         142.0880  141.5244  165.8261 C.2     1  UNL1        0.2439
     14 O         141.3047  140.9194  164.6991 O.2     1  UNL1       -0.2731
     15 N         143.1475  142.5467  165.5391 N.am    1  UNL1       -0.2730
     16 C         144.0072  143.2353  166.5574 C.3     1  UNL1        0.0939
     17 C         144.9244  144.1740  165.8311 C.3     1  UNL1        0.0237
     18 C         144.6316  144.0656  164.3640 C.3     1  UNL1        0.0293
     19 C         143.5335  143.0599  164.1836 C.3     1  UNL1        0.1319
     20 C         141.8118  141.1072  167.2403 C.3     1  UNL1        0.1512
     21 C         141.5181  142.7927  169.1955 C.2     1  UNL1        0.4021
     22 O         143.0024  142.8005  169.4118 O.2     1  UNL1       -0.2264
     23 N         140.9228  141.9461  168.1097 N.am    1  UNL1       -0.2640
     24 H         139.9486  141.9409  167.9678 H       1  UNL1        0.1532
     25 C         139.5561  142.9823  170.8880 C.3     1  UNL1        0.2573
     26 O         140.6290  143.6315  170.0649 O.3     1  UNL1       -0.4306
     27 C         142.4247  139.8512  167.7849 C.3     1  UNL1        0.0270
     28 C         142.1032  139.4035  169.1799 C.3     1  UNL1        0.0022
     29 C         143.3592  139.0427  166.9345 C.3     1  UNL1        0.0022
     30 C         141.8379  136.7826  157.0388 C.ar    1  UNL1        0.0000
     31 C         142.7350  135.5873  157.1666 C.ar    1  UNL1        0.0000
     32 C         142.6165  134.4530  156.1921 C.ar    1  UNL1        0.0015
     33 C         141.6010  134.5141  155.0899 C.ar    1  UNL1        0.0172
     34 C         140.7039  135.7096  154.9621 C.ar    1  UNL1        0.0015
     35 C         140.8223  136.8437  155.9365 C.ar    1  UNL1        0.0000
     36 C         141.4826  133.3800  154.1155 C.ar    1  UNL1        0.0769
     37 C         141.7951  133.4406  152.6496 C.ar    1  UNL1        0.1171
     38 N         141.5365  132.0841  152.0640 N.ar    1  UNL1       -0.2279
     39 C         141.0641  131.1851  153.1679 C.ar    1  UNL1        0.1353
     40 N         141.0308  131.9860  154.4358 N.ar    1  UNL1       -0.3394
     41 H         140.7599  131.6548  155.3224 H       1  UNL1        0.1671
     42 C         140.6906  129.7390  153.0284 C.3     1  UNL1        0.1319
     43 C         139.8008  129.1563  151.9707 C.3     1  UNL1        0.0293
     44 C         139.7016  127.6790  152.2108 C.3     1  UNL1        0.0237
     45 C         140.5301  127.3486  153.4168 C.3     1  UNL1        0.0939
     46 N         141.1412  128.6218  153.9221 N.am    1  UNL1       -0.2730
     47 C         142.0446  128.7545  155.1122 C.2     1  UNL1        0.2439
     48 O         142.5822  130.1003  155.4994 O.2     1  UNL1       -0.2731
     49 C         142.4103  127.5414  155.9152 C.3     1  UNL1        0.1512
     50 N         143.5551  126.6736  155.4837 N.am    1  UNL1       -0.2640
     51 C         144.9294  127.2587  155.3460 C.2     1  UNL1        0.4021
     52 O         145.1588  128.7116  155.6398 O.2     1  UNL1       -0.2264
     53 H         143.4045  125.7200  155.2908 H       1  UNL1        0.1532
     54 O         146.0743  126.3909  154.9144 O.3     1  UNL1       -0.4306
     55 C         146.9816  126.8415  153.8082 C.3     1  UNL1        0.2573
     56 C         141.6313  127.1962  157.1496 C.3     1  UNL1        0.0270
     57 C         142.2961  127.2422  158.4934 C.3     1  UNL1        0.0022
     58 C         140.1873  126.8050  157.0403 C.3     1  UNL1        0.0022
@<TRIPOS>BOND
     1    25    26    1
     2    26    21    1
     3    21    22    2
     4    21    23   am
     5    20    23    1
     6    20    13    1
     7    13    14    2
     8    13    15   am
     9    15    16    1
    10    16    17    1
    11    17    18    1
    12    18    19    1
    13    19     7    1
    14     7     8   ar
    15     8     9   ar
    16     9    10   ar
    17    10     1    1
    18     1     2   ar
    19     2     3   ar
    20     3     4   ar
    21     4    30    1
    22    30    31   ar
    23    31    32   ar
    24    32    33   ar
    25    33    36    1
    26    36    37   ar
    27    37    38   ar
    28    38    39   ar
    29    42    39    1
    30    42    43    1
    31    43    44    1
    32    44    45    1
    33    45    46    1
    34    46    47   am
    35    47    48    2
    36    47    49    1
    37    49    50    1
    38    50    51   am
    39    51    52    2
    40    51    54    1
    41    54    55    1
    42    49    56    1
    43    56    57    1
    44    56    58    1
    45    39    40   ar
    46    33    34   ar
    47    34    35   ar
    48     4     5   ar
    49     5     6   ar
    50    10    11   ar
    51    20    27    1
    52    27    28    1
    53    27    29    1
    54    19    15    1
    55    11     7   ar
    56     6     1   ar
    57    35    30   ar
    58    40    36   ar
    59    46    42    1
    60    23    24    1
    61    50    53    1
    62    40    41    1
    63    11    12    1
@<TRIPOS>MOLECULE
*****
 58 63 0 0 0
SMALL
GASTEIGER

@<TRIPOS>ATOM
      1 C         142.2350  140.5341  158.7999 C.ar    1  UNL1        0.0172
      2 C         142.1167  140.6124  157.3066 C.ar    1  UNL1        0.0015
      3 C         141.9755  139.3566  156.4987 C.ar    1  UNL1        0.0000
      4 C         141.9525  138.0225  157.1840 C.ar    1  UNL1        0.0000
      5 C         142.0707  137.9442  158.6772 C.ar    1  UNL1        0.0000
      6 C         142.2120  139.2000  159.4852 C.ar    1  UNL1        0.0015
      7 C         142.8457  143.3205  161.4323 C.ar    1  UNL1        0.1353
      8 N         142.3416  144.1246  160.2706 N.ar    1  UNL1       -0.2279
      9 C         142.0515  143.1787  159.1432 C.ar    1  UNL1        0.1171
     10 C         142.3763  141.7900  159.6079 C.ar    1  UNL1        0.0769
     11 N         142.8671  141.8776  161.0227 N.ar    1  UNL1       -0.3394
     12 H         143.1531  141.1210  161.5839 H       1  UNL1        0.1671
     13 C         141.9994  142.1037  164.3396 C.2     1  UNL1        0.2439
     14 O         141.4358  141.3465  163.1739 O.2     1  UNL1       -0.2731
     15 N         142.8673  143.3045  164.1051 N.am    1  UNL1       -0.2730
     16 C         143.4985  144.1568  165.1658 C.3     1  UNL1        0.0939
     17 C         144.2776  145.2429  164.4849 C.3     1  UNL1        0.0237
     18 C         144.1279  145.0617  163.0035 C.3     1  UNL1        0.0293
     19 C         143.2563  143.8638  162.7687 C.3     1  UNL1        0.1319
     20 C         141.6952  141.6603  165.7399 C.3     1  UNL1        0.1512
     21 C         142.4390  139.2985  166.5265 C.2     1  UNL1        0.4021
     22 O         141.2478  138.6956  165.8428 O.2     1  UNL1       -0.2264
     23 N         142.6627  140.7809  166.4751 N.am    1  UNL1       -0.2640
     24 H         143.4445  141.1766  166.9238 H       1  UNL1        0.1532
     25 C         144.5077  137.7267  166.5147 C.3     1  UNL1        0.2573
     26 O         143.4066  138.4192  167.2618 O.3     1  UNL1       -0.4306
     27 C         140.4234  142.0963  166.4050 C.3     1  UNL1        0.0270
     28 C         139.5330  143.1008  165.7355 C.3     1  UNL1        0.0022
     29 C         140.0418  141.5278  167.7397 C.3     1  UNL1        0.0022
     30 C         141.8112  136.7666  156.3759 C.ar    1  UNL1        0.0000
     31 C         142.6422  135.5631  156.7089 C.ar    1  UNL1        0.0000
     32 C         142.5009  134.3072  155.9008 C.ar    1  UNL1        0.0015
     33 C         141.5286  134.2549  154.7598 C.ar    1  UNL1        0.0172
     34 C         140.6976  135.4585  154.4269 C.ar    1  UNL1        0.0015
     35 C         140.8389  136.7143  155.2349 C.ar    1  UNL1        0.0000
     36 C         141.3873  132.9991  153.9518 C.ar    1  UNL1        0.0769
     37 C         141.6892  132.8527  152.4898 C.ar    1  UNL1        0.1171
     38 N         141.4078  131.4323  152.0983 N.ar    1  UNL1       -0.2279
     39 C         140.9319  130.7009  153.3184 C.ar    1  UNL1        0.1353
     40 N         140.9193  131.6692  154.4639 N.ar    1  UNL1       -0.3394
     41 H         140.6509  131.4673  155.3893 H       1  UNL1        0.1671
     42 C         140.5379  129.2549  153.3818 C.3     1  UNL1        0.1319
     43 C         139.5562  128.5682  152.4791 C.3     1  UNL1        0.0293
     44 C         139.4680  127.1307  152.8985 C.3     1  UNL1        0.0237
     45 C         140.3951  126.9290  154.0603 C.3     1  UNL1        0.0939
     46 N         141.0563  128.2419  154.3589 N.am    1  UNL1       -0.2730
     47 C         142.0598  128.4968  155.4443 C.2     1  UNL1        0.2439
     48 O         142.6380  129.8693  155.6238 O.2     1  UNL1       -0.2731
     49 C         142.4851  127.3794  156.3501 C.3     1  UNL1        0.1512
     50 N         143.6931  126.5575  156.0110 N.am    1  UNL1       -0.2640
     51 C         145.0444  127.2047  155.9388 C.2     1  UNL1        0.4021
     52 O         145.1876  128.6738  156.2058 O.2     1  UNL1       -0.2264
     53 H         143.5991  125.5933  155.8357 H       1  UNL1        0.1532
     54 O         146.2525  126.3828  155.5996 O.3     1  UNL1       -0.4306
     55 C         147.3619  126.9805  154.7859 C.3     1  UNL1        0.2573
     56 C         141.7024  127.0839  157.5951 C.3     1  UNL1        0.0270
     57 C         142.3043  127.3563  158.9418 C.3     1  UNL1        0.0022
     58 C         140.3178  126.5160  157.4935 C.3     1  UNL1        0.0022
@<TRIPOS>BOND
     1    25    26    1
     2    26    21    1
     3    21    22    2
     4    21    23   am
     5    20    23    1
     6    20    13    1
     7    13    14    2
     8    13    15   am
     9    15    16    1
    10    16    17    1
    11    17    18    1
    12    18    19    1
    13    19     7    1
    14     7     8   ar
    15     8     9   ar
    16     9    10   ar
    17    10     1    1
    18     1     2   ar
    19     2     3   ar
    20     3     4   ar
    21     4    30    1
    22    30    31   ar
    23    31    32   ar
    24    32    33   ar
    25    33    36    1
    26    36    37   ar
    27    37    38   ar
    28    38    39   ar
    29    42    39    1
    30    42    43    1
    31    43    44    1
    32    44    45    1
    33    45    46    1
    34    46    47   am
    35    47    48    2
    36    47    49    1
    37    49    50    1
    38    50    51   am
    39    51    52    2
    40    51    54    1
    41    54    55    1
    42    49    56    1
    43    56    57    1
    44    56    58    1
    45    39    40   ar
    46    33    34   ar
    47    34    35   ar
    48     4     5   ar
    49     5     6   ar
    50    10    11   ar
    51    20    27    1
    52    27    28    1
    53    27    29    1
    54    19    15    1
    55    11     7   ar
    56     6     1   ar
    57    35    30   ar
    58    40    36   ar
    59    46    42    1
    60    23    24    1
    61    50    53    1
    62    40    41    1
    63    11    12    1
@<TRIPOS>MOLECULE
*****
 58 63 0 0 0
SMALL
GASTEIGER

@<TRIPOS>ATOM
      1 C         141.7202  140.5987  160.7296 C.ar    1  UNL1        0.0172
      2 C         142.2290  139.2155  161.0088 C.ar    1  UNL1        0.0015
      3 C         142.1900  138.1708  159.9332 C.ar    1  UNL1        0.0000
      4 C         141.6423  138.5092  158.5784 C.ar    1  UNL1        0.0000
      5 C         141.1336  139.8923  158.2992 C.ar    1  UNL1        0.0000
      6 C         141.1725  140.9371  159.3747 C.ar    1  UNL1        0.0015
      7 C         141.1315  143.0488  163.6819 C.ar    1  UNL1        0.1353
      8 N         142.5063  143.4537  163.2388 N.ar    1  UNL1       -0.2279
      9 C         142.8941  142.5852  162.0790 C.ar    1  UNL1        0.1171
     10 C         141.7591  141.6435  161.8052 C.ar    1  UNL1        0.0769
     11 N         140.6698  141.9300  162.7958 N.ar    1  UNL1       -0.3394
     12 H         139.8038  141.4654  162.8542 H       1  UNL1        0.1671
     13 C         141.1246  142.0151  166.7771 C.2     1  UNL1        0.2439
     14 O         142.0006  141.2073  165.8662 O.2     1  UNL1       -0.2731
     15 N         140.3518  143.1809  166.2351 N.am    1  UNL1       -0.2730
     16 C         139.4401  144.0763  167.0208 C.3     1  UNL1        0.0939
     17 C         138.8799  145.1047  166.0836 C.3     1  UNL1        0.0237
     18 C         139.4453  144.8450  164.7187 C.3     1  UNL1        0.0293
     19 C         140.3550  143.6561  164.8124 C.3     1  UNL1        0.1319
     20 C         141.0212  141.6572  168.2301 C.3     1  UNL1        0.1512
     21 C         139.2494  139.8315  167.7035 C.2     1  UNL1        0.4021
     22 O         139.6035  139.9076  166.2479 O.2     1  UNL1       -0.2264
     23 N         139.9582  140.7063  168.6946 N.am    1  UNL1       -0.2640
     24 H         139.7258  140.6563  169.6500 H       1  UNL1        0.1532
     25 C         137.3401  138.1536  167.1654 C.3     1  UNL1        0.2573
     26 O         138.1864  138.8806  168.1681 O.3     1  UNL1       -0.4306
     27 C         141.9809  142.2502  169.2187 C.3     1  UNL1        0.0270
     28 C         143.3119  141.6000  169.4547 C.3     1  UNL1        0.0022
     29 C         141.6098  143.4936  169.9713 C.3     1  UNL1        0.0022
     30 C         141.6034  137.4643  157.5028 C.ar    1  UNL1        0.0000
     31 C         140.3450  137.2433  156.7170 C.ar    1  UNL1        0.0000
     32 C         140.3061  136.1985  155.6414 C.ar    1  UNL1        0.0015
     33 C         141.5257  135.3747  155.3516 C.ar    1  UNL1        0.0172
     34 C         142.7842  135.5957  156.1374 C.ar    1  UNL1        0.0015
     35 C         142.8230  136.6405  157.2130 C.ar    1  UNL1        0.0000
     36 C         141.4868  134.3299  154.2760 C.ar    1  UNL1        0.0769
     37 C         141.9667  134.4989  152.8649 C.ar    1  UNL1        0.1171
     38 N         141.7378  133.2061  152.1395 N.ar    1  UNL1       -0.2279
     39 C         141.1163  132.2381  153.1023 C.ar    1  UNL1        0.1353
     40 N         140.9612  132.9327  154.4227 N.ar    1  UNL1       -0.3394
     41 H         140.5812  132.5404  155.2418 H       1  UNL1        0.1671
     42 C         140.7196  130.8239  152.7981 C.3     1  UNL1        0.1319
     43 C         139.4857  130.3932  152.0619 C.3     1  UNL1        0.0293
     44 C         139.4906  128.8952  151.9854 C.3     1  UNL1        0.0237
     45 C         140.7277  128.4000  152.6744 C.3     1  UNL1        0.0939
     46 N         141.4871  129.5920  153.1766 N.am    1  UNL1       -0.2730
     47 C         142.7862  129.5580  153.9258 C.2     1  UNL1        0.2439
     48 O         143.4314  130.8384  154.3667 O.2     1  UNL1       -0.2731
     49 C         143.4400  128.2437  154.2342 C.3     1  UNL1        0.1512
     50 N         142.8023  127.2994  155.2097 N.am    1  UNL1       -0.2640
     51 C         143.0497  127.4602  156.6804 C.2     1  UNL1        0.4021
     52 O         143.9349  128.5653  157.1755 O.2     1  UNL1       -0.2264
     53 H         142.2213  126.5741  154.8846 H       1  UNL1        0.1532
     54 O         142.4119  126.5159  157.6559 O.3     1  UNL1       -0.4306
     55 C         142.8674  126.4931  159.0849 C.3     1  UNL1        0.2573
     56 C         144.7316  127.8737  153.5672 C.3     1  UNL1        0.0270
     57 C         145.3910  128.8355  152.6239 C.3     1  UNL1        0.0022
     58 C         145.3637  126.5417  153.8435 C.3     1  UNL1        0.0022
@<TRIPOS>BOND
     1    25    26    1
     2    26    21    1
     3    21    22    2
     4    21    23   am
     5    20    23    1
     6    20    13    1
     7    13    14    2
     8    13    15   am
     9    15    16    1
    10    16    17    1
    11    17    18    1
    12    18    19    1
    13    19     7    1
    14     7     8   ar
    15     8     9   ar
    16     9    10   ar
    17    10     1    1
    18     1     2   ar
    19     2     3   ar
    20     3     4   ar
    21     4    30    1
    22    30    31   ar
    23    31    32   ar
    24    32    33   ar
    25    33    36    1
    26    36    37   ar
    27    37    38   ar
    28    38    39   ar
    29    42    39    1
    30    42    43    1
    31    43    44    1
    32    44    45    1
    33    45    46    1
    34    46    47   am
    35    47    48    2
    36    47    49    1
    37    49    50    1
    38    50    51   am
    39    51    52    2
    40    51    54    1
    41    54    55    1
    42    49    56    1
    43    56    57    1
    44    56    58    1
    45    39    40   ar
    46    33    34   ar
    47    34    35   ar
    48     4     5   ar
    49     5     6   ar
    50    10    11   ar
    51    20    27    1
    52    27    28    1
    53    27    29    1
    54    19    15    1
    55    11     7   ar
    56     6     1   ar
    57    35    30   ar
    58    40    36   ar
    59    46    42    1
    60    23    24    1
    61    50    53    1
    62    40    41    1
    63    11    12    1
@<TRIPOS>MOLECULE
*****
 58 63 0 0 0
SMALL
GASTEIGER

@<TRIPOS>ATOM
      1 C         133.9956  141.5350  154.6881 C.ar    1  UNL1        0.0172
      2 C         135.2113  142.3920  154.4950 C.ar    1  UNL1        0.0015
      3 C         136.4339  142.1589  155.3321 C.ar    1  UNL1        0.0000
      4 C         136.4407  141.0687  156.3624 C.ar    1  UNL1        0.0000
      5 C         135.2250  140.2117  156.5555 C.ar    1  UNL1        0.0000
      6 C         134.0024  140.4448  155.7184 C.ar    1  UNL1        0.0015
      7 C         130.4570  141.9777  153.1557 C.ar    1  UNL1        0.1353
      8 N         131.3258  142.2760  151.9698 N.ar    1  UNL1       -0.2279
      9 C         132.7571  142.1465  152.3995 C.ar    1  UNL1        0.1171
     10 C         132.7729  141.7681  153.8509 C.ar    1  UNL1        0.0769
     11 N         131.3513  141.6638  154.3182 N.ar    1  UNL1       -0.3394
     12 H         131.0570  141.4303  155.2282 H       1  UNL1        0.1671
     13 C         128.5642  141.1168  155.6708 C.2     1  UNL1        0.2439
     14 O         130.0342  141.0001  155.9456 O.2     1  UNL1       -0.2731
     15 N         128.0872  141.5952  154.3315 N.am    1  UNL1       -0.2730
     16 C         126.6564  141.7619  153.9132 C.3     1  UNL1        0.0939
     17 C         126.6421  142.2606  152.4986 C.3     1  UNL1        0.0237
     18 C         128.0641  142.4021  152.0427 C.3     1  UNL1        0.0293
     19 C         128.9572  141.9909  153.1755 C.3     1  UNL1        0.1319
     20 C         127.5712  140.7551  156.7352 C.3     1  UNL1        0.1512
     21 C         127.9394  138.4802  157.9349 C.2     1  UNL1        0.4021
     22 O         129.0762  139.0743  158.7126 O.2     1  UNL1       -0.2264
     23 N         127.1869  139.3206  156.9462 N.am    1  UNL1       -0.2640
     24 H         126.4408  138.9306  156.4358 H       1  UNL1        0.1532
     25 C         127.5958  136.4531  159.5233 C.3     1  UNL1        0.2573
     26 O         127.5551  137.0457  158.1459 O.3     1  UNL1       -0.4306
     27 C         126.9624  141.8279  157.5887 C.3     1  UNL1        0.0270
     28 C         126.4752  141.5017  158.9694 C.3     1  UNL1        0.0022
     29 C         126.8407  143.2270  157.0615 C.3     1  UNL1        0.0022
     30 C         137.6634  140.8356  157.1996 C.ar    1  UNL1        0.0000
     31 C         137.7783  141.4720  158.5529 C.ar    1  UNL1        0.0000
     32 C         139.0009  141.2389  159.3901 C.ar    1  UNL1        0.0015
     33 C         140.1087  140.3693  158.8738 C.ar    1  UNL1        0.0172
     34 C         139.9939  139.7328  157.5204 C.ar    1  UNL1        0.0015
     35 C         138.7712  139.9659  156.6833 C.ar    1  UNL1        0.0000
     36 C         141.3314  140.1362  159.7109 C.ar    1  UNL1        0.0769
     37 C         142.3058  139.0067  159.5530 C.ar    1  UNL1        0.1171
     38 N         143.3709  139.1640  160.5974 N.ar    1  UNL1       -0.2279
     39 C         143.0548  140.3907  161.4008 C.ar    1  UNL1        0.1353
     40 N         141.7943  140.9915  160.8529 N.ar    1  UNL1       -0.3394
     41 H         141.3489  141.8045  161.1845 H       1  UNL1        0.1671
     42 C         143.8581  140.9232  162.5502 C.3     1  UNL1        0.1319
     43 C         145.1629  141.6561  162.4494 C.3     1  UNL1        0.0293
     44 C         145.6089  142.0020  163.8391 C.3     1  UNL1        0.0237
     45 C         144.5797  141.4828  164.7989 C.3     1  UNL1        0.0939
     46 N         143.4977  140.8161  164.0023 N.am    1  UNL1       -0.2730
     47 C         142.2706  140.1577  164.5599 C.2     1  UNL1        0.2439
     48 O         141.2709  139.5290  163.6351 O.2     1  UNL1       -0.2731
     49 C         142.0433  140.1281  166.0424 C.3     1  UNL1        0.1512
     50 N         141.0728  141.0832  166.6714 N.am    1  UNL1       -0.2640
     51 C         141.5779  142.2631  167.4476 C.2     1  UNL1        0.4021
     52 O         143.0537  142.4880  167.5947 O.2     1  UNL1       -0.2264
     53 H         140.1042  140.9356  166.5749 H       1  UNL1        0.1532
     54 O         140.6074  143.2182  168.0768 O.3     1  UNL1       -0.4306
     55 C         140.3426  143.1555  169.5519 C.3     1  UNL1        0.2573
     56 C         142.7865  139.1434  166.8956 C.3     1  UNL1        0.0270
     57 C         142.5418  139.0979  168.3747 C.3     1  UNL1        0.0022
     58 C         143.7745  138.2042  166.2696 C.3     1  UNL1        0.0022
@<TRIPOS>BOND
     1    25    26    1
     2    26    21    1
     3    21    22    2
     4    21    23   am
     5    20    23    1
     6    20    13    1
     7    13    14    2
     8    13    15   am
     9    15    16    1
    10    16    17    1
    11    17    18    1
    12    18    19    1
    13    19     7    1
    14     7     8   ar
    15     8     9   ar
    16     9    10   ar
    17    10     1    1
    18     1     2   ar
    19     2     3   ar
    20     3     4   ar
    21     4    30    1
    22    30    31   ar
    23    31    32   ar
    24    32    33   ar
    25    33    36    1
    26    36    37   ar
    27    37    38   ar
    28    38    39   ar
    29    42    39    1
    30    42    43    1
    31    43    44    1
    32    44    45    1
    33    45    46    1
    34    46    47   am
    35    47    48    2
    36    47    49    1
    37    49    50    1
    38    50    51   am
    39    51    52    2
    40    51    54    1
    41    54    55    1
    42    49    56    1
    43    56    57    1
    44    56    58    1
    45    39    40   ar
    46    33    34   ar
    47    34    35   ar
    48     4     5   ar
    49     5     6   ar
    50    10    11   ar
    51    20    27    1
    52    27    28    1
    53    27    29    1
    54    19    15    1
    55    11     7   ar
    56     6     1   ar
    57    35    30   ar
    58    40    36   ar
    59    46    42    1
    60    23    24    1
    61    50    53    1
    62    40    41    1
    63    11    12    1
@<TRIPOS>MOLECULE
*****
 58 63 0 0 0
SMALL
GASTEIGER

@<TRIPOS>ATOM
      1 C         134.4485  141.7204  154.9020 C.ar    1  UNL1        0.0172
      2 C         135.5696  142.7100  154.7849 C.ar    1  UNL1        0.0015
      3 C         136.7480  142.6210  155.7087 C.ar    1  UNL1        0.0000
      4 C         136.8052  141.5425  156.7496 C.ar    1  UNL1        0.0000
      5 C         135.6841  140.5529  156.8667 C.ar    1  UNL1        0.0000
      6 C         134.5057  140.6419  155.9429 C.ar    1  UNL1        0.0015
      7 C         130.9932  141.9266  153.1458 C.ar    1  UNL1        0.1353
      8 N         131.9202  141.9656  151.9672 N.ar    1  UNL1       -0.2279
      9 C         133.3273  141.8932  152.4815 C.ar    1  UNL1        0.1171
     10 C         133.2701  141.8093  153.9781 C.ar    1  UNL1        0.0769
     11 N         131.8275  141.8299  154.3886 N.ar    1  UNL1       -0.3394
     12 H         131.4879  141.7875  155.3117 H       1  UNL1        0.1671
     13 C         128.9495  140.5140  155.2618 C.2     1  UNL1        0.2439
     14 O         130.3999  140.2918  155.5734 O.2     1  UNL1       -0.2731
     15 N         128.5556  141.3262  154.0639 N.am    1  UNL1       -0.2730
     16 C         127.1532  141.6318  153.6282 C.3     1  UNL1        0.0939
     17 C         127.2258  142.4699  152.3863 C.3     1  UNL1        0.0237
     18 C         128.6731  142.6824  152.0545 C.3     1  UNL1        0.0293
     19 C         129.4950  141.9755  153.0912 C.3     1  UNL1        0.1319
     20 C         127.8930  139.9238  156.1481 C.3     1  UNL1        0.1512
     21 C         127.6590  137.3368  156.1014 C.2     1  UNL1        0.4021
     22 O         128.9085  137.2089  156.9215 O.2     1  UNL1       -0.2264
     23 N         127.1513  138.6942  155.7148 N.am    1  UNL1       -0.2640
     24 H         126.3312  138.7781  155.1765 H       1  UNL1        0.1532
     25 C         126.6627  135.0004  156.6480 C.3     1  UNL1        0.2573
     26 O         126.9173  136.1072  155.6680 O.3     1  UNL1       -0.4306
     27 C         127.5782  140.5635  157.4679 C.3     1  UNL1        0.0270
     28 C         128.0507  139.9272  158.7414 C.3     1  UNL1        0.0022
     29 C         126.7908  141.8394  157.5142 C.3     1  UNL1        0.0022
     30 C         137.9836  141.4536  157.6735 C.ar    1  UNL1        0.0000
     31 C         138.7097  140.1516  157.8398 C.ar    1  UNL1        0.0000
     32 C         139.8881  140.0627  158.7637 C.ar    1  UNL1        0.0015
     33 C         140.3404  141.2758  159.5212 C.ar    1  UNL1        0.0172
     34 C         139.6143  142.5778  159.3548 C.ar    1  UNL1        0.0015
     35 C         138.4360  142.6667  158.4310 C.ar    1  UNL1        0.0000
     36 C         141.5188  141.1870  160.4450 C.ar    1  UNL1        0.0769
     37 C         142.8353  141.8828  160.2643 C.ar    1  UNL1        0.1171
     38 N         143.7177  141.5126  161.4194 N.ar    1  UNL1       -0.2279
     39 C         142.9466  140.5879  162.3140 C.ar    1  UNL1        0.1353
     40 N         141.5876  140.3866  161.7118 N.ar    1  UNL1       -0.3394
     41 H         140.8673  139.8275  162.0829 H       1  UNL1        0.1671
     42 C         143.4467  139.9724  163.5873 C.3     1  UNL1        0.1319
     43 C         144.6723  139.1200  163.7326 C.3     1  UNL1        0.0293
     44 C         144.7920  138.7221  165.1739 C.3     1  UNL1        0.0237
     45 C         143.6403  139.3287  165.9194 C.3     1  UNL1        0.0939
     46 N         142.8089  140.1014  164.9388 N.am    1  UNL1       -0.2730
     47 C         141.5591  140.8685  165.2543 C.2     1  UNL1        0.2439
     48 O         140.8305  141.5965  164.1639 O.2     1  UNL1       -0.2731
     49 C         141.0378  140.9074  166.6604 C.3     1  UNL1        0.1512
     50 N         140.1860  139.7856  167.1758 N.am    1  UNL1       -0.2640
     51 C         138.7903  139.6043  166.6571 C.2     1  UNL1        0.4021
     52 O         138.2464  140.5450  165.6230 O.2     1  UNL1       -0.2264
     53 H         140.5430  139.1682  167.8545 H       1  UNL1        0.1532
     54 O         137.9384  138.4824  167.1725 O.3     1  UNL1       -0.4306
     55 C         137.8453  137.1974  166.4043 C.3     1  UNL1        0.2573
     56 C         141.3684  142.0683  167.5509 C.3     1  UNL1        0.0270
     57 C         140.2907  143.0248  167.9675 C.3     1  UNL1        0.0022
     58 C         142.7768  142.2727  168.0249 C.3     1  UNL1        0.0022
@<TRIPOS>BOND
     1    25    26    1
     2    26    21    1
     3    21    22    2
     4    21    23   am
     5    20    23    1
     6    20    13    1
     7    13    14    2
     8    13    15   am
     9    15    16    1
    10    16    17    1
    11    17    18    1
    12    18    19    1
    13    19     7    1
    14     7     8   ar
    15     8     9   ar
    16     9    10   ar
    17    10     1    1
    18     1     2   ar
    19     2     3   ar
    20     3     4   ar
    21     4    30    1
    22    30    31   ar
    23    31    32   ar
    24    32    33   ar
    25    33    36    1
    26    36    37   ar
    27    37    38   ar
    28    38    39   ar
    29    42    39    1
    30    42    43    1
    31    43    44    1
    32    44    45    1
    33    45    46    1
    34    46    47   am
    35    47    48    2
    36    47    49    1
    37    49    50    1
    38    50    51   am
    39    51    52    2
    40    51    54    1
    41    54    55    1
    42    49    56    1
    43    56    57    1
    44    56    58    1
    45    39    40   ar
    46    33    34   ar
    47    34    35   ar
    48     4     5   ar
    49     5     6   ar
    50    10    11   ar
    51    20    27    1
    52    27    28    1
    53    27    29    1
    54    19    15    1
    55    11     7   ar
    56     6     1   ar
    57    35    30   ar
    58    40    36   ar
    59    46    42    1
    60    23    24    1
    61    50    53    1
    62    40    41    1
    63    11    12    1
@<TRIPOS>MOLECULE
*****
 58 63 0 0 0
SMALL
GASTEIGER

@<TRIPOS>ATOM
      1 C         142.4653  142.3690  158.8505 C.ar    1  UNL1        0.0172
      2 C         143.7268  142.5266  159.6466 C.ar    1  UNL1        0.0015
      3 C         145.0591  142.4696  158.9597 C.ar    1  UNL1        0.0000
      4 C         145.1299  142.2550  157.4769 C.ar    1  UNL1        0.0000
      5 C         143.8684  142.0974  156.6808 C.ar    1  UNL1        0.0000
      6 C         142.5361  142.1544  157.3676 C.ar    1  UNL1        0.0015
      7 C         139.4220  142.6991  161.2369 C.ar    1  UNL1        0.1353
      8 N         138.7435  142.3282  159.9515 N.ar    1  UNL1       -0.2279
      9 C         139.8010  142.1594  158.9011 C.ar    1  UNL1        0.1171
     10 C         141.1330  142.4260  159.5373 C.ar    1  UNL1        0.0769
     11 N         140.8987  142.7595  160.9809 N.ar    1  UNL1       -0.3394
     12 H         141.5925  142.9795  161.6439 H       1  UNL1        0.1671
     13 C         139.6283  140.8419  163.9122 C.2     1  UNL1        0.2439
     14 O         140.4195  140.3242  162.7477 O.2     1  UNL1       -0.2731
     15 N         138.8378  142.1095  163.7777 N.am    1  UNL1       -0.2730
     16 C         138.0033  142.7461  164.8493 C.3     1  UNL1        0.0939
     17 C         137.3927  143.9932  164.2819 C.3     1  UNL1        0.0237
     18 C         137.8499  144.1274  162.8596 C.3     1  UNL1        0.0293
     19 C         138.7429  142.9632  162.5480 C.3     1  UNL1        0.1319
     20 C         139.6276  140.0919  165.2113 C.3     1  UNL1        0.1512
     21 C         141.7871  140.2330  166.6489 C.2     1  UNL1        0.4021
     22 O         142.4691  139.2743  165.7185 O.2     1  UNL1       -0.2264
     23 N         140.3663  140.6418  166.3953 N.am    1  UNL1       -0.2640
     24 H         139.9186  141.2710  167.0059 H       1  UNL1        0.1532
     25 C         141.7753  141.4882  168.9236 C.3     1  UNL1        0.2573
     26 O         142.5257  140.7829  167.8329 O.3     1  UNL1       -0.4306
     27 C         138.8881  138.7919  165.3263 C.3     1  UNL1        0.0270
     28 C         138.0288  138.5214  166.5256 C.3     1  UNL1        0.0022
     29 C         139.0079  137.7623  164.2419 C.3     1  UNL1        0.0022
     30 C         146.4623  142.1980  156.7901 C.ar    1  UNL1        0.0000
     31 C         146.5879  141.5345  155.4507 C.ar    1  UNL1        0.0000
     32 C         147.9202  141.4775  154.7639 C.ar    1  UNL1        0.0015
     33 C         149.1269  142.0841  155.4165 C.ar    1  UNL1        0.0172
     34 C         149.0013  142.7477  156.7559 C.ar    1  UNL1        0.0015
     35 C         147.6690  142.8046  157.4427 C.ar    1  UNL1        0.0000
     36 C         150.4593  142.0271  154.7298 C.ar    1  UNL1        0.0769
     37 C         151.1094  140.7979  154.1673 C.ar    1  UNL1        0.1171
     38 N         152.4273  141.2005  153.5748 N.ar    1  UNL1       -0.2279
     39 C         152.5917  142.6785  153.7712 C.ar    1  UNL1        0.1353
     40 N         151.3754  143.1894  154.4850 N.ar    1  UNL1       -0.3394
     41 H         151.2078  144.1235  154.7469 H       1  UNL1        0.1671
     42 C         153.7662  143.5012  153.3311 C.3     1  UNL1        0.1319
     43 C         154.4156  143.4586  151.9796 C.3     1  UNL1        0.0293
     44 C         155.5483  144.4420  151.9784 C.3     1  UNL1        0.0237
     45 C         155.5990  145.0923  153.3291 C.3     1  UNL1        0.0939
     46 N         154.4976  144.5108  154.1651 N.am    1  UNL1       -0.2730
     47 C         154.1829  144.8751  155.5857 C.2     1  UNL1        0.2439
     48 O         153.0445  144.2056  156.2971 O.2     1  UNL1       -0.2731
     49 C         155.0065  145.9089  156.2951 C.3     1  UNL1        0.1512
     50 N         155.0092  147.3281  155.8095 N.am    1  UNL1       -0.2640
     51 C         154.4970  148.4249  156.6953 C.2     1  UNL1        0.4021
     52 O         153.9820  148.1024  158.0667 O.2     1  UNL1       -0.2264
     53 H         155.3472  147.5397  154.9094 H       1  UNL1        0.1532
     54 O         154.4997  149.8441  156.2097 O.3     1  UNL1       -0.4306
     55 C         153.4136  150.7856  156.6385 C.3     1  UNL1        0.2573
     56 C         155.8272  145.5235  157.4899 C.3     1  UNL1        0.0270
     57 C         156.4643  146.5853  158.3364 C.3     1  UNL1        0.0022
     58 C         156.0110  144.0761  157.8383 C.3     1  UNL1        0.0022
@<TRIPOS>BOND
     1    25    26    1
     2    26    21    1
     3    21    22    2
     4    21    23   am
     5    20    23    1
     6    20    13    1
     7    13    14    2
     8    13    15   am
     9    15    16    1
    10    16    17    1
    11    17    18    1
    12    18    19    1
    13    19     7    1
    14     7     8   ar
    15     8     9   ar
    16     9    10   ar
    17    10     1    1
    18     1     2   ar
    19     2     3   ar
    20     3     4   ar
    21     4    30    1
    22    30    31   ar
    23    31    32   ar
    24    32    33   ar
    25    33    36    1
    26    36    37   ar
    27    37    38   ar
    28    38    39   ar
    29    42    39    1
    30    42    43    1
    31    43    44    1
    32    44    45    1
    33    45    46    1
    34    46    47   am
    35    47    48    2
    36    47    49    1
    37    49    50    1
    38    50    51   am
    39    51    52    2
    40    51    54    1
    41    54    55    1
    42    49    56    1
    43    56    57    1
    44    56    58    1
    45    39    40   ar
    46    33    34   ar
    47    34    35   ar
    48     4     5   ar
    49     5     6   ar
    50    10    11   ar
    51    20    27    1
    52    27    28    1
    53    27    29    1
    54    19    15    1
    55    11     7   ar
    56     6     1   ar
    57    35    30   ar
    58    40    36   ar
    59    46    42    1
    60    23    24    1
    61    50    53    1
    62    40    41    1
    63    11    12    1
