@<TRIPOS>MOLECULE
*****
 28 29 0 0 0
SMALL
GASTEIGER

@<TRIPOS>ATOM
      1 C         137.7776  138.7227  166.9739 C.3     1  UNL1        0.2184
      2 C         139.4379  140.2769  168.9303 C.1     1  UNL1       -0.0706
      3 C         138.6078  139.4998  167.9521 C.1     1  UNL1       -0.0571
      4 C         140.2681  141.0540  169.9085 C.3     1  UNL1        0.1499
      5 N         141.7602  141.0956  169.7594 N.3     1  UNL1       -0.2618
      6 C         142.4753  142.4139  169.7377 C.3     1  UNL1        0.0730
      7 C         143.9686  142.4594  169.8711 C.3     1  UNL1        0.0188
      8 C         142.5370  139.8188  169.6319 C.3     1  UNL1        0.0730
      9 C         142.9274  139.3107  168.2757 C.3     1  UNL1        0.0174
     10 C         142.2009  139.7945  167.0557 C.3     1  UNL1        0.0014
     11 C         142.9573  140.0577  165.7875 C.3     1  UNL1        0.0000
     12 C         144.0182  139.0991  165.3343 C.3     1  UNL1        0.0000
     13 C         145.4123  140.8764  164.0506 C.3     1  UNL1        0.0000
     14 C         144.9236  139.4657  164.1959 C.3     1  UNL1        0.0000
     15 O         137.5980  139.2295  165.5736 O.3     1  UNL1       -0.3335
     16 C         138.7090  139.9780  164.8986 C.3     1  UNL1        0.1610
     17 C         139.7856  139.2277  164.1720 C.ar    1  UNL1        0.0088
     18 C         140.1536  137.8389  164.6030 C.ar    1  UNL1       -0.0016
     19 C         141.2302  137.0886  163.8763 C.ar    1  UNL1       -0.0002
     20 C         141.9388  137.7272  162.7187 C.ar    1  UNL1       -0.0000
     21 C         141.5708  139.1160  162.2877 C.ar    1  UNL1       -0.0002
     22 C         140.4942  139.8662  163.0144 C.ar    1  UNL1       -0.0016
     23 C         138.7433  141.4766  164.9503 C.ar    1  UNL1        0.0088
     24 C         139.7798  142.1750  165.7797 C.ar    1  UNL1       -0.0016
     25 C         139.8141  143.6738  165.8313 C.ar    1  UNL1       -0.0002
     26 C         138.8119  144.4741  165.0535 C.ar    1  UNL1       -0.0000
     27 C         137.7754  143.7758  164.2241 C.ar    1  UNL1       -0.0002
     28 C         137.7411  142.2771  164.1725 C.ar    1  UNL1       -0.0016
@<TRIPOS>BOND
     1    13    14    1
     2    14    12    1
     3    12    11    1
     4    11    10    1
     5    10     9    1
     6     9     8    1
     7     8     5    1
     8     5     6    1
     9     6     7    1
    10     5     4    1
    11     4     2    1
    12     2     3    3
    13     3     1    1
    14     1    15    1
    15    15    16    1
    16    16    17    1
    17    17    18   ar
    18    18    19   ar
    19    19    20   ar
    20    20    21   ar
    21    21    22   ar
    22    16    23    1
    23    23    24   ar
    24    24    25   ar
    25    25    26   ar
    26    26    27   ar
    27    27    28   ar
    28    22    17   ar
    29    28    23   ar
@<TRIPOS>MOLECULE
*****
 28 29 0 0 0
SMALL
GASTEIGER

@<TRIPOS>ATOM
      1 C         141.6873  141.5197  168.2044 C.3     1  UNL1        0.2184
      2 C         143.6557  142.8119  166.3455 C.1     1  UNL1       -0.0706
      3 C         142.6715  142.1658  167.2750 C.1     1  UNL1       -0.0571
      4 C         144.6400  143.4580  165.4161 C.3     1  UNL1        0.1499
      5 N         144.7639  142.9751  164.0013 N.3     1  UNL1       -0.2618
      6 C         145.5974  141.7671  163.6914 C.3     1  UNL1        0.0730
      7 C         145.0345  140.3931  163.9034 C.3     1  UNL1        0.0188
      8 C         144.0544  143.7003  162.8965 C.3     1  UNL1        0.0730
      9 C         142.5892  143.9987  163.0151 C.3     1  UNL1        0.0174
     10 C         141.5834  143.0800  162.3870 C.3     1  UNL1        0.0014
     11 C         141.5886  141.6186  162.7251 C.3     1  UNL1        0.0000
     12 C         141.1382  140.6120  161.7084 C.3     1  UNL1        0.0000
     13 C         139.7717  138.4400  161.3021 C.3     1  UNL1        0.0000
     14 C         139.9213  139.7748  161.9698 C.3     1  UNL1        0.0000
     15 O         140.2599  141.3414  167.7793 O.3     1  UNL1       -0.3335
     16 C         139.9336  141.0766  166.3394 C.3     1  UNL1        0.1610
     17 C         139.3263  142.1588  165.4967 C.ar    1  UNL1        0.0088
     18 C         138.2628  141.8210  164.4943 C.ar    1  UNL1       -0.0016
     19 C         137.6556  142.9031  163.6516 C.ar    1  UNL1       -0.0002
     20 C         138.1119  144.3231  163.8113 C.ar    1  UNL1       -0.0000
     21 C         139.1755  144.6609  164.8137 C.ar    1  UNL1       -0.0002
     22 C         139.7827  143.5787  165.6563 C.ar    1  UNL1       -0.0016
     23 C         140.2146  139.7296  165.7422 C.ar    1  UNL1        0.0088
     24 C         141.6181  139.3511  165.3724 C.ar    1  UNL1       -0.0016
     25 C         141.8991  138.0040  164.7752 C.ar    1  UNL1       -0.0002
     26 C         140.7765  137.0356  164.5478 C.ar    1  UNL1       -0.0000
     27 C         139.3729  137.4140  164.9176 C.ar    1  UNL1       -0.0002
     28 C         139.0919  138.7610  165.5148 C.ar    1  UNL1       -0.0016
@<TRIPOS>BOND
     1    13    14    1
     2    14    12    1
     3    12    11    1
     4    11    10    1
     5    10     9    1
     6     9     8    1
     7     8     5    1
     8     5     6    1
     9     6     7    1
    10     5     4    1
    11     4     2    1
    12     2     3    3
    13     3     1    1
    14     1    15    1
    15    15    16    1
    16    16    17    1
    17    17    18   ar
    18    18    19   ar
    19    19    20   ar
    20    20    21   ar
    21    21    22   ar
    22    16    23    1
    23    23    24   ar
    24    24    25   ar
    25    25    26   ar
    26    26    27   ar
    27    27    28   ar
    28    22    17   ar
    29    28    23   ar
@<TRIPOS>MOLECULE
*****
 28 29 0 0 0
SMALL
GASTEIGER

@<TRIPOS>ATOM
      1 C         144.0959  142.9514  165.8394 C.3     1  UNL1        0.2184
      2 C         142.7633  141.8021  168.2691 C.1     1  UNL1       -0.0706
      3 C         143.4296  142.3767  167.0543 C.1     1  UNL1       -0.0571
      4 C         142.0971  141.2274  169.4840 C.3     1  UNL1        0.1499
      5 N         140.6139  141.3649  169.6617 N.3     1  UNL1       -0.2618
      6 C         140.0503  142.5690  170.3563 C.3     1  UNL1        0.0730
      7 C         140.3955  143.9454  169.8703 C.3     1  UNL1        0.0188
      8 C         139.6946  140.2984  169.1447 C.3     1  UNL1        0.0730
      9 C         139.6567  139.9873  167.6779 C.3     1  UNL1        0.0174
     10 C         138.4648  139.2925  167.0890 C.3     1  UNL1        0.0014
     11 C         138.3035  139.2119  165.5999 C.3     1  UNL1        0.0000
     12 C         138.1314  140.4660  164.7953 C.3     1  UNL1        0.0000
     13 C         138.1366  139.1417  162.5601 C.3     1  UNL1        0.0000
     14 C         138.3075  140.4318  163.3060 C.3     1  UNL1        0.0000
     15 O         143.6444  142.5378  164.4701 O.3     1  UNL1       -0.3335
     16 C         142.2626  141.9896  164.2697 C.3     1  UNL1        0.1610
     17 C         141.0764  142.9059  164.3281 C.ar    1  UNL1        0.0088
     18 C         140.5949  143.5896  163.0829 C.ar    1  UNL1       -0.0016
     19 C         139.4087  144.5059  163.1413 C.ar    1  UNL1       -0.0002
     20 C         138.7041  144.7385  164.4449 C.ar    1  UNL1       -0.0000
     21 C         139.1857  144.0548  165.6901 C.ar    1  UNL1       -0.0002
     22 C         140.3718  143.1385  165.6317 C.ar    1  UNL1       -0.0016
     23 C         142.0670  140.5251  164.0110 C.ar    1  UNL1        0.0088
     24 C         142.0251  139.5598  165.1583 C.ar    1  UNL1       -0.0016
     25 C         141.8295  138.0952  164.8995 C.ar    1  UNL1       -0.0002
     26 C         141.6757  137.5960  163.4935 C.ar    1  UNL1       -0.0000
     27 C         141.7176  138.5614  162.3461 C.ar    1  UNL1       -0.0002
     28 C         141.9132  140.0258  162.6048 C.ar    1  UNL1       -0.0016
@<TRIPOS>BOND
     1    13    14    1
     2    14    12    1
     3    12    11    1
     4    11    10    1
     5    10     9    1
     6     9     8    1
     7     8     5    1
     8     5     6    1
     9     6     7    1
    10     5     4    1
    11     4     2    1
    12     2     3    3
    13     3     1    1
    14     1    15    1
    15    15    16    1
    16    16    17    1
    17    17    18   ar
    18    18    19   ar
    19    19    20   ar
    20    20    21   ar
    21    21    22   ar
    22    16    23    1
    23    23    24   ar
    24    24    25   ar
    25    25    26   ar
    26    26    27   ar
    27    27    28   ar
    28    22    17   ar
    29    28    23   ar
@<TRIPOS>MOLECULE
*****
 28 29 0 0 0
SMALL
GASTEIGER

@<TRIPOS>ATOM
      1 C         144.0472  143.0012  165.4791 C.3     1  UNL1        0.2184
      2 C         142.8680  141.8960  168.0065 C.1     1  UNL1       -0.0706
      3 C         143.4576  142.4486  166.7428 C.1     1  UNL1       -0.0571
      4 C         142.2783  141.3434  169.2702 C.3     1  UNL1        0.1499
      5 N         140.7941  141.3807  169.4843 N.3     1  UNL1       -0.2618
      6 C         140.1706  142.5324  170.2157 C.3     1  UNL1        0.0730
      7 C         140.4692  143.9400  169.7922 C.3     1  UNL1        0.0188
      8 C         139.9334  140.2666  168.9668 C.3     1  UNL1        0.0730
      9 C         139.7765  140.0646  167.4888 C.3     1  UNL1        0.0174
     10 C         138.5663  139.3588  166.9526 C.3     1  UNL1        0.0014
     11 C         138.3716  139.2239  165.4715 C.3     1  UNL1        0.0000
     12 C         138.1137  140.4419  164.6350 C.3     1  UNL1        0.0000
     13 C         138.0537  139.0058  162.4707 C.3     1  UNL1        0.0000
     14 C         138.1499  140.3455  163.1385 C.3     1  UNL1        0.0000
     15 O         143.4592  142.6271  164.1509 O.3     1  UNL1       -0.3335
     16 C         142.0975  142.0016  164.0829 C.3     1  UNL1        0.1610
     17 C         141.9611  140.5237  163.8652 C.ar    1  UNL1        0.0088
     18 C         141.7576  139.9854  162.4800 C.ar    1  UNL1       -0.0016
     19 C         141.6211  138.5076  162.2624 C.ar    1  UNL1       -0.0002
     20 C         141.6882  137.5681  163.4298 C.ar    1  UNL1       -0.0000
     21 C         141.8917  138.1065  164.8150 C.ar    1  UNL1       -0.0002
     22 C         142.0282  139.5843  165.0326 C.ar    1  UNL1       -0.0016
     23 C         140.8724  142.8539  164.2326 C.ar    1  UNL1        0.0088
     24 C         140.1640  143.3695  163.0151 C.ar    1  UNL1       -0.0016
     25 C         138.9388  144.2219  163.1649 C.ar    1  UNL1       -0.0002
     26 C         138.4219  144.5586  164.5322 C.ar    1  UNL1       -0.0000
     27 C         139.1303  144.0430  165.7497 C.ar    1  UNL1       -0.0002
     28 C         140.3555  143.1907  165.6000 C.ar    1  UNL1       -0.0016
@<TRIPOS>BOND
     1    13    14    1
     2    14    12    1
     3    12    11    1
     4    11    10    1
     5    10     9    1
     6     9     8    1
     7     8     5    1
     8     5     6    1
     9     6     7    1
    10     5     4    1
    11     4     2    1
    12     2     3    3
    13     3     1    1
    14     1    15    1
    15    15    16    1
    16    16    17    1
    17    17    18   ar
    18    18    19   ar
    19    19    20   ar
    20    20    21   ar
    21    21    22   ar
    22    16    23    1
    23    23    24   ar
    24    24    25   ar
    25    25    26   ar
    26    26    27   ar
    27    27    28   ar
    28    22    17   ar
    29    28    23   ar
@<TRIPOS>MOLECULE
*****
 28 29 0 0 0
SMALL
GASTEIGER

@<TRIPOS>ATOM
      1 C         144.1016  143.6035  164.4280 C.3     1  UNL1        0.2184
      2 C         141.3223  144.5181  163.7657 C.1     1  UNL1       -0.0706
      3 C         142.7119  144.0608  164.0969 C.1     1  UNL1       -0.0571
      4 C         139.9326  144.9754  163.4345 C.3     1  UNL1        0.1499
      5 N         139.0344  144.1058  162.6056 N.3     1  UNL1       -0.2618
      6 C         139.4178  143.7580  161.1978 C.3     1  UNL1        0.0730
      7 C         139.8468  142.3608  160.8607 C.3     1  UNL1        0.0188
      8 C         137.7529  143.5839  163.1846 C.3     1  UNL1        0.0730
      9 C         137.7867  142.5446  164.2656 C.3     1  UNL1        0.0174
     10 C         138.8472  141.4838  164.2532 C.3     1  UNL1        0.0014
     11 C         138.5361  140.1064  164.7590 C.3     1  UNL1        0.0000
     12 C         138.6803  139.7931  166.2188 C.3     1  UNL1        0.0000
     13 C         137.9752  137.2954  166.3389 C.3     1  UNL1        0.0000
     14 C         137.8539  138.7049  166.8376 C.3     1  UNL1        0.0000
     15 O         144.3076  142.4206  165.3272 O.3     1  UNL1       -0.3335
     16 C         143.1240  141.6794  165.8745 C.3     1  UNL1        0.1610
     17 C         142.4732  142.1392  167.1454 C.ar    1  UNL1        0.0088
     18 C         141.0163  142.4957  167.1556 C.ar    1  UNL1       -0.0016
     19 C         140.3656  142.9555  168.4265 C.ar    1  UNL1       -0.0002
     20 C         141.1719  143.0589  169.6871 C.ar    1  UNL1       -0.0000
     21 C         142.6289  142.7024  169.6769 C.ar    1  UNL1       -0.0002
     22 C         143.2795  142.2426  168.4060 C.ar    1  UNL1       -0.0016
     23 C         142.5911  140.4784  165.1510 C.ar    1  UNL1        0.0088
     24 C         142.3573  139.1971  165.8951 C.ar    1  UNL1       -0.0016
     25 C         141.8244  137.9961  165.1715 C.ar    1  UNL1       -0.0002
     26 C         141.5252  138.0763  163.7038 C.ar    1  UNL1       -0.0000
     27 C         141.7590  139.3576  162.9597 C.ar    1  UNL1       -0.0002
     28 C         142.2919  140.5586  163.6832 C.ar    1  UNL1       -0.0016
@<TRIPOS>BOND
     1    13    14    1
     2    14    12    1
     3    12    11    1
     4    11    10    1
     5    10     9    1
     6     9     8    1
     7     8     5    1
     8     5     6    1
     9     6     7    1
    10     5     4    1
    11     4     2    1
    12     2     3    3
    13     3     1    1
    14     1    15    1
    15    15    16    1
    16    16    17    1
    17    17    18   ar
    18    18    19   ar
    19    19    20   ar
    20    20    21   ar
    21    21    22   ar
    22    16    23    1
    23    23    24   ar
    24    24    25   ar
    25    25    26   ar
    26    26    27   ar
    27    27    28   ar
    28    22    17   ar
    29    28    23   ar
@<TRIPOS>MOLECULE
*****
 28 29 0 0 0
SMALL
GASTEIGER

@<TRIPOS>ATOM
      1 C         138.1337  138.9936  165.8330 C.3     1  UNL1        0.2184
      2 C         139.7830  140.0159  168.1209 C.1     1  UNL1       -0.0706
      3 C         138.9583  139.5047  166.9770 C.1     1  UNL1       -0.0571
      4 C         140.6077  140.5270  169.2649 C.3     1  UNL1        0.1499
      5 N         142.0181  140.9799  169.0291 N.3     1  UNL1       -0.2618
      6 C         142.8112  141.5788  170.1527 C.3     1  UNL1        0.0730
      7 C         143.9962  142.4486  169.8539 C.3     1  UNL1        0.0188
      8 C         142.6354  140.8340  167.6699 C.3     1  UNL1        0.0730
      9 C         142.7156  142.0174  166.7516 C.3     1  UNL1        0.0174
     10 C         143.7028  142.0248  165.6222 C.3     1  UNL1        0.0014
     11 C         143.8612  143.2508  164.7727 C.3     1  UNL1        0.0000
     12 C         142.6497  144.0064  164.3131 C.3     1  UNL1        0.0000
     13 C         141.2575  144.5267  162.1821 C.3     1  UNL1        0.0000
     14 C         142.5724  144.5142  162.9037 C.3     1  UNL1        0.0000
     15 O         138.5383  139.2992  164.4213 O.3     1  UNL1       -0.3335
     16 C         139.5194  140.3994  164.1438 C.3     1  UNL1        0.1610
     17 C         140.9346  140.0666  163.7741 C.ar    1  UNL1        0.0088
     18 C         141.6125  140.8069  162.6596 C.ar    1  UNL1       -0.0016
     19 C         143.0276  140.4741  162.2899 C.ar    1  UNL1       -0.0002
     20 C         143.7648  139.4010  163.0349 C.ar    1  UNL1       -0.0000
     21 C         143.0869  138.6607  164.1495 C.ar    1  UNL1       -0.0002
     22 C         141.6718  138.9935  164.5191 C.ar    1  UNL1       -0.0016
     23 C         139.0854  141.8322  164.2359 C.ar    1  UNL1        0.0088
     24 C         138.1821  142.4111  163.1876 C.ar    1  UNL1       -0.0016
     25 C         137.7481  143.8441  163.2798 C.ar    1  UNL1       -0.0002
     26 C         138.2174  144.6980  164.4201 C.ar    1  UNL1       -0.0000
     27 C         139.1208  144.1191  165.4684 C.ar    1  UNL1       -0.0002
     28 C         139.5548  142.6862  165.3763 C.ar    1  UNL1       -0.0016
@<TRIPOS>BOND
     1    13    14    1
     2    14    12    1
     3    12    11    1
     4    11    10    1
     5    10     9    1
     6     9     8    1
     7     8     5    1
     8     5     6    1
     9     6     7    1
    10     5     4    1
    11     4     2    1
    12     2     3    3
    13     3     1    1
    14     1    15    1
    15    15    16    1
    16    16    17    1
    17    17    18   ar
    18    18    19   ar
    19    19    20   ar
    20    20    21   ar
    21    21    22   ar
    22    16    23    1
    23    23    24   ar
    24    24    25   ar
    25    25    26   ar
    26    26    27   ar
    27    27    28   ar
    28    22    17   ar
    29    28    23   ar
@<TRIPOS>MOLECULE
*****
 28 29 0 0 0
SMALL
GASTEIGER

@<TRIPOS>ATOM
      1 C         139.9750  138.5683  165.1232 C.3     1  UNL1        0.2184
      2 C         138.1431  140.5521  163.8162 C.1     1  UNL1       -0.0706
      3 C         139.0590  139.5602  164.4697 C.1     1  UNL1       -0.0571
      4 C         137.2271  141.5441  163.1627 C.3     1  UNL1        0.1499
      5 N         137.7942  142.7607  162.4931 N.3     1  UNL1       -0.2618
      6 C         138.4663  142.6372  161.1578 C.3     1  UNL1        0.0730
      7 C         139.8220  142.0033  161.0563 C.3     1  UNL1        0.0188
      8 C         137.6891  144.1008  163.1587 C.3     1  UNL1        0.0730
      9 C         137.6883  144.1966  164.6556 C.3     1  UNL1        0.0174
     10 C         138.9620  144.4977  165.3886 C.3     1  UNL1        0.0014
     11 C         140.1221  143.5514  165.2964 C.3     1  UNL1        0.0000
     12 C         141.0696  143.6373  164.1367 C.3     1  UNL1        0.0000
     13 C         142.9308  145.1543  163.1445 C.3     1  UNL1        0.0000
     14 C         141.5257  144.9766  163.6384 C.3     1  UNL1        0.0000
     15 O         141.4439  138.8555  165.2219 O.3     1  UNL1       -0.3335
     16 C         141.9388  139.9215  166.1539 C.3     1  UNL1        0.1610
     17 C         142.9462  140.9257  165.6776 C.ar    1  UNL1        0.0088
     18 C         143.2428  142.1411  166.5051 C.ar    1  UNL1       -0.0016
     19 C         144.2502  143.1451  166.0287 C.ar    1  UNL1       -0.0002
     20 C         144.9610  142.9338  164.7248 C.ar    1  UNL1       -0.0000
     21 C         144.6644  141.7184  163.8973 C.ar    1  UNL1       -0.0002
     22 C         143.6570  140.7143  164.3737 C.ar    1  UNL1       -0.0016
     23 C         141.4262  139.9835  167.5622 C.ar    1  UNL1        0.0088
     24 C         142.2187  139.3669  168.6766 C.ar    1  UNL1       -0.0016
     25 C         141.7061  139.4289  170.0850 C.ar    1  UNL1       -0.0002
     26 C         140.4011  140.1074  170.3789 C.ar    1  UNL1       -0.0000
     27 C         139.6085  140.7239  169.2646 C.ar    1  UNL1       -0.0002
     28 C         140.1211  140.6620  167.8562 C.ar    1  UNL1       -0.0016
@<TRIPOS>BOND
     1    13    14    1
     2    14    12    1
     3    12    11    1
     4    11    10    1
     5    10     9    1
     6     9     8    1
     7     8     5    1
     8     5     6    1
     9     6     7    1
    10     5     4    1
    11     4     2    1
    12     2     3    3
    13     3     1    1
    14     1    15    1
    15    15    16    1
    16    16    17    1
    17    17    18   ar
    18    18    19   ar
    19    19    20   ar
    20    20    21   ar
    21    21    22   ar
    22    16    23    1
    23    23    24   ar
    24    24    25   ar
    25    25    26   ar
    26    26    27   ar
    27    27    28   ar
    28    22    17   ar
    29    28    23   ar
@<TRIPOS>MOLECULE
*****
 28 29 0 0 0
SMALL
GASTEIGER

@<TRIPOS>ATOM
      1 C         138.4038  143.5490  164.6256 C.3     1  UNL1        0.2184
      2 C         138.2572  140.7196  163.6392 C.1     1  UNL1       -0.0706
      3 C         138.3305  142.1343  164.1324 C.1     1  UNL1       -0.0571
      4 C         138.1839  139.3049  163.1460 C.3     1  UNL1        0.1499
      5 N         139.0911  138.2605  163.7260 N.3     1  UNL1       -0.2618
      6 C         138.5941  137.3561  164.8145 C.3     1  UNL1        0.0730
      7 C         138.3195  137.9086  166.1817 C.3     1  UNL1        0.0188
      8 C         140.4953  138.1206  163.2174 C.3     1  UNL1        0.0730
      9 C         141.6161  138.8471  163.9001 C.3     1  UNL1        0.0174
     10 C         142.1952  138.3056  165.1735 C.3     1  UNL1        0.0014
     11 C         143.5378  138.7779  165.6472 C.3     1  UNL1        0.0000
     12 C         144.5133  139.3656  164.6711 C.3     1  UNL1        0.0000
     13 C         145.7641  141.4444  163.7414 C.3     1  UNL1        0.0000
     14 C         144.6433  140.8547  164.5451 C.3     1  UNL1        0.0000
     15 O         139.6173  144.0220  165.3698 O.3     1  UNL1       -0.3335
     16 C         140.8910  143.2323  165.3065 C.3     1  UNL1        0.1610
     17 C         141.8133  143.3894  164.1340 C.ar    1  UNL1        0.0088
     18 C         141.7331  142.4311  162.9829 C.ar    1  UNL1       -0.0016
     19 C         142.6554  142.5883  161.8105 C.ar    1  UNL1       -0.0002
     20 C         143.6580  143.7038  161.7892 C.ar    1  UNL1       -0.0000
     21 C         143.7383  144.6621  162.9404 C.ar    1  UNL1       -0.0002
     22 C         142.8159  144.5049  164.1127 C.ar    1  UNL1       -0.0016
     23 C         141.2424  142.2855  166.4156 C.ar    1  UNL1        0.0088
     24 C         140.2768  141.2105  166.8182 C.ar    1  UNL1       -0.0016
     25 C         140.6282  140.2637  167.9273 C.ar    1  UNL1       -0.0002
     26 C         141.9452  140.3919  168.6338 C.ar    1  UNL1       -0.0000
     27 C         142.9108  141.4668  168.2311 C.ar    1  UNL1       -0.0002
     28 C         142.5594  142.4136  167.1221 C.ar    1  UNL1       -0.0016
@<TRIPOS>BOND
     1    13    14    1
     2    14    12    1
     3    12    11    1
     4    11    10    1
     5    10     9    1
     6     9     8    1
     7     8     5    1
     8     5     6    1
     9     6     7    1
    10     5     4    1
    11     4     2    1
    12     2     3    3
    13     3     1    1
    14     1    15    1
    15    15    16    1
    16    16    17    1
    17    17    18   ar
    18    18    19   ar
    19    19    20   ar
    20    20    21   ar
    21    21    22   ar
    22    16    23    1
    23    23    24   ar
    24    24    25   ar
    25    25    26   ar
    26    26    27   ar
    27    27    28   ar
    28    22    17   ar
    29    28    23   ar
@<TRIPOS>MOLECULE
*****
 28 29 0 0 0
SMALL
GASTEIGER

@<TRIPOS>ATOM
      1 C         145.0444  142.4401  163.8439 C.3     1  UNL1        0.2184
      2 C         143.9439  139.8399  162.8303 C.1     1  UNL1       -0.0706
      3 C         144.4942  141.1400  163.3371 C.1     1  UNL1       -0.0571
      4 C         143.3937  138.5397  162.3235 C.3     1  UNL1        0.1499
      5 N         141.9128  138.3650  162.1598 N.3     1  UNL1       -0.2618
      6 C         141.1454  139.2806  161.2527 C.3     1  UNL1        0.0730
      7 C         140.4116  140.4583  161.8221 C.3     1  UNL1        0.0188
      8 C         141.1996  137.2747  162.9031 C.3     1  UNL1        0.0730
      9 C         141.0906  137.3334  164.3979 C.3     1  UNL1        0.0174
     10 C         139.7550  137.5526  165.0446 C.3     1  UNL1        0.0014
     11 C         138.9734  138.7980  164.7478 C.3     1  UNL1        0.0000
     12 C         138.6714  139.7735  165.8465 C.3     1  UNL1        0.0000
     13 C         139.2817  140.1615  168.3419 C.3     1  UNL1        0.0000
     14 C         138.6558  139.3139  167.2743 C.3     1  UNL1        0.0000
     15 O         144.5324  143.0214  165.1284 O.3     1  UNL1       -0.3335
     16 C         143.1625  142.6606  165.6215 C.3     1  UNL1        0.1610
     17 C         141.9557  143.3453  165.0513 C.ar    1  UNL1        0.0088
     18 C         142.1192  144.3936  163.9910 C.ar    1  UNL1       -0.0016
     19 C         140.9125  145.0782  163.4209 C.ar    1  UNL1       -0.0002
     20 C         139.5423  144.7146  163.9111 C.ar    1  UNL1       -0.0000
     21 C         139.3788  143.6663  164.9715 C.ar    1  UNL1       -0.0002
     22 C         140.5855  142.9817  165.5416 C.ar    1  UNL1       -0.0016
     23 C         142.9993  141.6151  166.6846 C.ar    1  UNL1        0.0088
     24 C         143.0440  142.0045  168.1325 C.ar    1  UNL1       -0.0016
     25 C         142.8808  140.9589  169.1957 C.ar    1  UNL1       -0.0002
     26 C         142.6728  139.5241  168.8109 C.ar    1  UNL1       -0.0000
     27 C         142.6281  139.1348  167.3630 C.ar    1  UNL1       -0.0002
     28 C         142.7913  140.1803  166.2999 C.ar    1  UNL1       -0.0016
@<TRIPOS>BOND
     1    13    14    1
     2    14    12    1
     3    12    11    1
     4    11    10    1
     5    10     9    1
     6     9     8    1
     7     8     5    1
     8     5     6    1
     9     6     7    1
    10     5     4    1
    11     4     2    1
    12     2     3    3
    13     3     1    1
    14     1    15    1
    15    15    16    1
    16    16    17    1
    17    17    18   ar
    18    18    19   ar
    19    19    20   ar
    20    20    21   ar
    21    21    22   ar
    22    16    23    1
    23    23    24   ar
    24    24    25   ar
    25    25    26   ar
    26    26    27   ar
    27    27    28   ar
    28    22    17   ar
    29    28    23   ar
