@<TRIPOS>MOLECULE
*****
 31 35 0 0 0
SMALL
GASTEIGER

@<TRIPOS>ATOM
      1 C         140.4788  139.2684  159.8912 C.ar    1  UNL1        0.0681
      2 C         141.9616  139.0496  159.8327 C.ar    1  UNL1        0.0208
      3 C         142.5677  138.3271  158.6663 C.ar    1  UNL1        0.0384
      4 C         141.6910  137.8233  157.5584 C.ar    1  UNL1        0.1385
      5 C         140.2082  138.0421  157.6168 C.ar    1  UNL1        0.0384
      6 C         139.6021  138.7646  158.7832 C.ar    1  UNL1        0.0208
      7 C         138.8438  143.6807  162.0954 C.ar    1  UNL1        0.1447
      8 C         138.2377  144.4032  163.2619 C.ar    1  UNL1        0.0372
      9 C         137.8430  143.6421  164.4927 C.ar    1  UNL1        0.0047
     10 C         138.0544  142.1585  164.5571 C.ar    1  UNL1        0.0195
     11 C         138.6605  141.4360  163.3906 C.ar    1  UNL1        0.0901
     12 N         138.8719  139.9523  163.4549 N.ar    1  UNL1       -0.2317
     13 C         139.4780  139.2298  162.2885 C.ar    1  UNL1        0.1268
     14 C         139.6894  137.7461  162.3528 C.3     1  UNL1        0.0723
     15 N         139.8727  139.9909  161.0577 N.ar    1  UNL1       -0.2625
     16 C         139.6613  141.4745  160.9933 C.ar    1  UNL1        0.2699
     17 O         140.0559  142.2356  159.7625 O.2     1  UNL1       -0.2664
     18 C         139.0552  142.1971  162.1598 C.ar    1  UNL1        0.1080
     19 C         140.2465  145.5486  160.9582 C.3     1  UNL1        0.2525
     20 O         139.2385  144.4418  160.8646 O.3     1  UNL1       -0.4712
     21 O         142.2971  137.1008  156.3919 O.3     1  UNL1       -0.4791
     22 C         142.3758  135.6028  156.3962 C.3     1  UNL1        0.1687
     23 C         143.3177  134.9040  157.3314 C.3     1  UNL1        0.0609
     24 C         143.3964  133.4061  157.3358 C.3     1  UNL1        0.0758
     25 N         142.5332  132.6070  156.4049 N.3     1  UNL1       -0.2737
     26 C         141.5913  133.3058  155.4698 C.3     1  UNL1        0.0758
     27 C         141.5126  134.8037  155.4654 C.3     1  UNL1        0.0609
     28 C         142.6119  131.1090  156.4092 C.3     1  UNL1        0.0575
     29 C         141.9918  130.0119  155.5956 C.3     1  UNL1        0.0160
     30 C         142.7232  128.9907  156.4153 C.3     1  UNL1        0.0028
     31 C         143.3432  130.0877  157.2289 C.3     1  UNL1        0.0160
@<TRIPOS>BOND
     1    19    20    1
     2    20     7    1
     3     7     8   ar
     4     8     9   ar
     5     9    10   ar
     6    10    11   ar
     7    11    12   ar
     8    12    13   ar
     9    13    14    1
    10    13    15   ar
    11    15     1    1
    12     1     2   ar
    13     2     3   ar
    14     3     4   ar
    15     4    21    1
    16    21    22    1
    17    22    23    1
    18    23    24    1
    19    24    25    1
    20    25    28    1
    21    28    29    1
    22    29    30    1
    23    30    31    1
    24    25    26    1
    25    26    27    1
    26     4     5   ar
    27     5     6   ar
    28    15    16   ar
    29    16    17    2
    30    16    18   ar
    31    18     7   ar
    32    18    11   ar
    33     6     1   ar
    34    27    22    1
    35    31    28    1
@<TRIPOS>MOLECULE
*****
 31 35 0 0 0
SMALL
GASTEIGER

@<TRIPOS>ATOM
      1 C         138.5683  140.7391  160.0146 C.ar    1  UNL1        0.0681
      2 C         139.3213  139.4439  159.9402 C.ar    1  UNL1        0.0208
      3 C         139.3683  138.5342  161.1320 C.ar    1  UNL1        0.0384
      4 C         138.6624  138.9198  162.3980 C.ar    1  UNL1        0.1385
      5 C         137.9095  140.2150  162.4724 C.ar    1  UNL1        0.0384
      6 C         137.8624  141.1246  161.2807 C.ar    1  UNL1        0.0208
      7 C         136.4164  142.1232  155.4920 C.ar    1  UNL1        0.1447
      8 C         136.3694  143.0329  154.3003 C.ar    1  UNL1        0.0372
      9 C         137.3513  144.1602  154.1781 C.ar    1  UNL1        0.0047
     10 C         138.3803  144.3778  155.2476 C.ar    1  UNL1        0.0195
     11 C         138.4273  143.4682  156.4393 C.ar    1  UNL1        0.0901
     12 N         139.4563  143.6858  157.5089 N.ar    1  UNL1       -0.2317
     13 C         139.5033  142.7761  158.7006 C.ar    1  UNL1        0.1268
     14 C         140.5323  142.9937  159.7701 C.3     1  UNL1        0.0723
     15 N         138.5213  141.6488  158.8228 N.ar    1  UNL1       -0.2625
     16 C         137.4924  141.4312  157.7533 C.ar    1  UNL1        0.2699
     17 O         136.5104  140.3039  157.8756 O.2     1  UNL1       -0.2664
     18 C         137.4453  142.3409  156.5615 C.ar    1  UNL1        0.1080
     19 C         134.2080  140.9727  154.7510 C.3     1  UNL1        0.2525
     20 O         135.4344  140.9960  155.6143 O.3     1  UNL1       -0.4712
     21 O         138.7095  138.0101  163.5899 O.3     1  UNL1       -0.4791
     22 C         139.0762  138.5577  164.9373 C.3     1  UNL1        0.1687
     23 C         140.4791  139.0172  165.2036 C.3     1  UNL1        0.0609
     24 C         140.8459  139.5648  166.5511 C.3     1  UNL1        0.0758
     25 N         139.8097  139.6529  167.6322 N.3     1  UNL1       -0.2737
     26 C         138.4069  139.1934  167.3658 C.3     1  UNL1        0.0758
     27 C         138.0402  138.6458  166.0184 C.3     1  UNL1        0.0609
     28 C         140.1765  140.2005  168.9797 C.3     1  UNL1        0.0575
     29 C         139.6063  141.2474  169.8902 C.3     1  UNL1        0.0160
     30 C         140.6951  140.9749  170.8852 C.3     1  UNL1        0.0028
     31 C         141.2653  139.9281  169.9748 C.3     1  UNL1        0.0160
@<TRIPOS>BOND
     1    19    20    1
     2    20     7    1
     3     7     8   ar
     4     8     9   ar
     5     9    10   ar
     6    10    11   ar
     7    11    12   ar
     8    12    13   ar
     9    13    14    1
    10    13    15   ar
    11    15     1    1
    12     1     2   ar
    13     2     3   ar
    14     3     4   ar
    15     4    21    1
    16    21    22    1
    17    22    23    1
    18    23    24    1
    19    24    25    1
    20    25    28    1
    21    28    29    1
    22    29    30    1
    23    30    31    1
    24    25    26    1
    25    26    27    1
    26     4     5   ar
    27     5     6   ar
    28    15    16   ar
    29    16    17    2
    30    16    18   ar
    31    18     7   ar
    32    18    11   ar
    33     6     1   ar
    34    27    22    1
    35    31    28    1
@<TRIPOS>MOLECULE
*****
 31 35 0 0 0
SMALL
GASTEIGER

@<TRIPOS>ATOM
      1 C         142.5966  139.7761  159.9126 C.ar    1  UNL1        0.0681
      2 C         141.3253  138.9829  159.9804 C.ar    1  UNL1        0.0208
      3 C         140.8826  138.1729  158.7981 C.ar    1  UNL1        0.0384
      4 C         141.7113  138.1561  157.5479 C.ar    1  UNL1        0.1385
      5 C         142.9827  138.9492  157.4801 C.ar    1  UNL1        0.0384
      6 C         143.4253  139.7592  158.6624 C.ar    1  UNL1        0.0208
      7 C         142.8429  144.3240  162.4137 C.ar    1  UNL1        0.1447
      8 C         143.2855  145.1340  163.5961 C.ar    1  UNL1        0.0372
      9 C         144.0476  144.4800  164.7103 C.ar    1  UNL1        0.0047
     10 C         144.3671  143.0160  164.6421 C.ar    1  UNL1        0.0195
     11 C         143.9245  142.2061  163.4598 C.ar    1  UNL1        0.0901
     12 N         144.2440  140.7420  163.3916 N.ar    1  UNL1       -0.2317
     13 C         143.8013  139.9321  162.2092 C.ar    1  UNL1        0.1268
     14 C         144.1208  138.4680  162.1410 C.3     1  UNL1        0.0723
     15 N         143.0392  140.5861  161.0950 N.ar    1  UNL1       -0.2625
     16 C         142.7197  142.0501  161.1632 C.ar    1  UNL1        0.2699
     17 O         141.9576  142.7041  160.0489 O.2     1  UNL1       -0.2664
     18 C         143.1623  142.8601  162.3456 C.ar    1  UNL1        0.1080
     19 C         140.6605  145.4099  161.5148 C.3     1  UNL1        0.2525
     20 O         142.0807  144.9781  161.2995 O.3     1  UNL1       -0.4712
     21 O         141.2687  137.3460  156.3655 O.3     1  UNL1       -0.4791
     22 C         141.8915  136.0080  156.0976 C.3     1  UNL1        0.1687
     23 C         141.2867  135.0901  155.0769 C.3     1  UNL1        0.0609
     24 C         141.9094  133.7520  154.8090 C.3     1  UNL1        0.0758
     25 N         143.1371  133.3319  155.5618 N.3     1  UNL1       -0.2737
     26 C         143.7418  134.2498  156.5823 C.3     1  UNL1        0.0758
     27 C         143.1190  135.5879  156.8503 C.3     1  UNL1        0.0609
     28 C         143.7598  131.9939  155.2938 C.3     1  UNL1        0.0575
     29 C         144.8184  131.1644  155.9584 C.3     1  UNL1        0.0160
     30 C         144.6406  130.1016  154.9149 C.3     1  UNL1        0.0028
     31 C         143.5821  130.9310  154.2505 C.3     1  UNL1        0.0160
@<TRIPOS>BOND
     1    19    20    1
     2    20     7    1
     3     7     8   ar
     4     8     9   ar
     5     9    10   ar
     6    10    11   ar
     7    11    12   ar
     8    12    13   ar
     9    13    14    1
    10    13    15   ar
    11    15     1    1
    12     1     2   ar
    13     2     3   ar
    14     3     4   ar
    15     4    21    1
    16    21    22    1
    17    22    23    1
    18    23    24    1
    19    24    25    1
    20    25    28    1
    21    28    29    1
    22    29    30    1
    23    30    31    1
    24    25    26    1
    25    26    27    1
    26     4     5   ar
    27     5     6   ar
    28    15    16   ar
    29    16    17    2
    30    16    18   ar
    31    18     7   ar
    32    18    11   ar
    33     6     1   ar
    34    27    22    1
    35    31    28    1
@<TRIPOS>MOLECULE
*****
 31 35 0 0 0
SMALL
GASTEIGER

@<TRIPOS>ATOM
      1 C         140.0690  140.1048  158.7495 C.ar    1  UNL1        0.0681
      2 C         139.1883  139.1145  158.0469 C.ar    1  UNL1        0.0208
      3 C         139.7606  138.2228  156.9852 C.ar    1  UNL1        0.0384
      4 C         141.2137  138.3213  156.6262 C.ar    1  UNL1        0.1385
      5 C         142.0944  139.3115  157.3289 C.ar    1  UNL1        0.0384
      6 C         141.5221  140.2033  158.3906 C.ar    1  UNL1        0.0208
      7 C         138.9602  141.0173  163.7434 C.ar    1  UNL1        0.1447
      8 C         138.3878  141.9090  164.8050 C.ar    1  UNL1        0.0372
      9 C         137.7974  143.2364  164.4314 C.ar    1  UNL1        0.0047
     10 C         137.7794  143.6719  162.9961 C.ar    1  UNL1        0.0195
     11 C         138.3518  142.7802  161.9345 C.ar    1  UNL1        0.0901
     12 N         138.3338  143.2157  160.4992 N.ar    1  UNL1       -0.2317
     13 C         138.9062  142.3239  159.4376 C.ar    1  UNL1        0.1268
     14 C         138.8882  142.7595  158.0023 C.3     1  UNL1        0.0723
     15 N         139.4966  140.9966  159.8112 N.ar    1  UNL1       -0.2625
     16 C         139.5146  140.5610  161.2465 C.ar    1  UNL1        0.2699
     17 O         140.1050  139.2337  161.6201 O.2     1  UNL1       -0.2664
     18 C         138.9422  141.4528  162.3082 C.ar    1  UNL1        0.1080
     19 C         138.7785  138.7442  164.9884 C.3     1  UNL1        0.2525
     20 O         139.5506  139.6899  164.1170 O.3     1  UNL1       -0.4712
     21 O         141.7861  137.4295  155.5645 O.3     1  UNL1       -0.4791
     22 C         142.1576  136.0141  155.8941 C.3     1  UNL1        0.1687
     23 C         143.2032  135.7356  156.9331 C.3     1  UNL1        0.0609
     24 C         143.5748  134.3203  157.2627 C.3     1  UNL1        0.0758
     25 N         142.9007  133.1833  156.5533 N.3     1  UNL1       -0.2737
     26 C         141.8553  133.4618  155.5144 C.3     1  UNL1        0.0758
     27 C         141.4837  134.8772  155.1848 C.3     1  UNL1        0.0609
     28 C         143.2723  131.7679  156.8829 C.3     1  UNL1        0.0575
     29 C         144.3493  131.1166  157.6989 C.3     1  UNL1        0.0160
     30 C         143.7977  129.7663  157.3490 C.3     1  UNL1        0.0028
     31 C         142.7208  130.4176  156.5330 C.3     1  UNL1        0.0160
@<TRIPOS>BOND
     1    19    20    1
     2    20     7    1
     3     7     8   ar
     4     8     9   ar
     5     9    10   ar
     6    10    11   ar
     7    11    12   ar
     8    12    13   ar
     9    13    14    1
    10    13    15   ar
    11    15     1    1
    12     1     2   ar
    13     2     3   ar
    14     3     4   ar
    15     4    21    1
    16    21    22    1
    17    22    23    1
    18    23    24    1
    19    24    25    1
    20    25    28    1
    21    28    29    1
    22    29    30    1
    23    30    31    1
    24    25    26    1
    25    26    27    1
    26     4     5   ar
    27     5     6   ar
    28    15    16   ar
    29    16    17    2
    30    16    18   ar
    31    18     7   ar
    32    18    11   ar
    33     6     1   ar
    34    27    22    1
    35    31    28    1
@<TRIPOS>MOLECULE
*****
 31 35 0 0 0
SMALL
GASTEIGER

@<TRIPOS>ATOM
      1 C         140.9034  139.3860  161.7285 C.ar    1  UNL1        0.0681
      2 C         139.6876  138.8869  161.0056 C.ar    1  UNL1        0.0208
      3 C         139.7426  138.6401  159.5271 C.ar    1  UNL1        0.0384
      4 C         141.0136  138.8924  158.7715 C.ar    1  UNL1        0.1385
      5 C         142.2294  139.3915  159.4944 C.ar    1  UNL1        0.0384
      6 C         142.1744  139.6383  160.9729 C.ar    1  UNL1        0.0208
      7 C         140.4031  142.6654  165.7279 C.ar    1  UNL1        0.1447
      8 C         140.3480  142.9121  167.2064 C.ar    1  UNL1        0.0372
      9 C         140.4880  141.7659  168.1638 C.ar    1  UNL1        0.0047
     10 C         140.6830  140.3729  167.6427 C.ar    1  UNL1        0.0195
     11 C         140.7381  140.1262  166.1642 C.ar    1  UNL1        0.0901
     12 N         140.9332  138.7332  165.6430 N.ar    1  UNL1       -0.2317
     13 C         140.9883  138.4865  164.1645 C.ar    1  UNL1        0.1268
     14 C         141.1833  137.0935  163.6432 C.3     1  UNL1        0.0723
     15 N         140.8483  139.6327  163.2071 N.ar    1  UNL1       -0.2625
     16 C         140.6533  141.0257  163.7282 C.ar    1  UNL1        0.2699
     17 O         140.5133  142.1719  162.7708 O.2     1  UNL1       -0.2664
     18 C         140.5982  141.2724  165.2068 C.ar    1  UNL1        0.1080
     19 C         139.0498  144.6916  164.8264 C.3     1  UNL1        0.2525
     20 O         140.2632  143.8116  164.7706 O.3     1  UNL1       -0.4712
     21 O         141.0687  138.6457  157.2929 O.3     1  UNL1       -0.4791
     22 C         141.5160  137.3123  156.7712 C.3     1  UNL1        0.1687
     23 C         142.7955  136.7046  157.2650 C.3     1  UNL1        0.0609
     24 C         143.2428  135.3713  156.7434 C.3     1  UNL1        0.0758
     25 N         142.4107  134.6457  155.7279 N.3     1  UNL1       -0.2737
     26 C         141.1313  135.2534  155.2342 C.3     1  UNL1        0.0758
     27 C         140.6839  136.5867  155.7558 C.3     1  UNL1        0.0609
     28 C         142.8580  133.3123  155.2063 C.3     1  UNL1        0.0575
     29 C         143.9003  132.3114  155.6085 C.3     1  UNL1        0.0160
     30 C         143.4906  131.4267  154.4685 C.3     1  UNL1        0.0028
     31 C         142.4484  132.4276  154.0663 C.3     1  UNL1        0.0160
@<TRIPOS>BOND
     1    19    20    1
     2    20     7    1
     3     7     8   ar
     4     8     9   ar
     5     9    10   ar
     6    10    11   ar
     7    11    12   ar
     8    12    13   ar
     9    13    14    1
    10    13    15   ar
    11    15     1    1
    12     1     2   ar
    13     2     3   ar
    14     3     4   ar
    15     4    21    1
    16    21    22    1
    17    22    23    1
    18    23    24    1
    19    24    25    1
    20    25    28    1
    21    28    29    1
    22    29    30    1
    23    30    31    1
    24    25    26    1
    25    26    27    1
    26     4     5   ar
    27     5     6   ar
    28    15    16   ar
    29    16    17    2
    30    16    18   ar
    31    18     7   ar
    32    18    11   ar
    33     6     1   ar
    34    27    22    1
    35    31    28    1
@<TRIPOS>MOLECULE
*****
 31 35 0 0 0
SMALL
GASTEIGER

@<TRIPOS>ATOM
      1 C         140.9309  140.4348  159.8116 C.ar    1  UNL1        0.0681
      2 C         141.2832  141.0302  158.4806 C.ar    1  UNL1        0.0208
      3 C         142.1387  140.2614  157.5179 C.ar    1  UNL1        0.0384
      4 C         142.6419  138.8972  157.8861 C.ar    1  UNL1        0.1385
      5 C         142.2896  138.3018  159.2170 C.ar    1  UNL1        0.0384
      6 C         141.4341  139.0706  160.1798 C.ar    1  UNL1        0.0208
      7 C         140.4976  143.7170  163.8166 C.ar    1  UNL1        0.1447
      8 C         139.6420  144.4859  164.7793 C.ar    1  UNL1        0.0372
      9 C         138.1475  144.3826  164.7022 C.ar    1  UNL1        0.0047
     10 C         137.5086  143.5104  163.6625 C.ar    1  UNL1        0.0195
     11 C         138.3642  142.7415  162.6998 C.ar    1  UNL1        0.0901
     12 N         137.7253  141.8693  161.6600 N.ar    1  UNL1       -0.2317
     13 C         138.5809  141.1004  160.6973 C.ar    1  UNL1        0.1268
     14 C         137.9420  140.2282  159.6575 C.3     1  UNL1        0.0723
     15 N         140.0753  141.2037  160.7743 N.ar    1  UNL1       -0.2625
     16 C         140.7142  142.0759  161.8141 C.ar    1  UNL1        0.2699
     17 O         142.2087  142.1792  161.8911 O.2     1  UNL1       -0.2664
     18 C         139.8587  142.8448  162.7768 C.ar    1  UNL1        0.1080
     19 C         142.6678  145.1327  163.6275 C.3     1  UNL1        0.2525
     20 O         141.9920  143.8203  163.8936 O.3     1  UNL1       -0.4712
     21 O         143.4975  138.1282  156.9233 O.3     1  UNL1       -0.4791
     22 C         142.9809  136.8620  156.3071 C.3     1  UNL1        0.1687
     23 C         143.9055  135.7001  156.0939 C.3     1  UNL1        0.0609
     24 C         143.3890  134.4338  155.4777 C.3     1  UNL1        0.0758
     25 N         141.9478  134.3294  155.0746 N.3     1  UNL1       -0.2737
     26 C         141.0234  135.4912  155.2878 C.3     1  UNL1        0.0758
     27 C         141.5399  136.7575  155.9041 C.3     1  UNL1        0.0609
     28 C         141.4313  133.0632  154.4584 C.3     1  UNL1        0.0575
     29 C         141.1164  131.6876  154.9671 C.3     1  UNL1        0.0160
     30 C         140.7008  131.2724  153.5869 C.3     1  UNL1        0.0028
     31 C         141.0157  132.6478  153.0783 C.3     1  UNL1        0.0160
@<TRIPOS>BOND
     1    19    20    1
     2    20     7    1
     3     7     8   ar
     4     8     9   ar
     5     9    10   ar
     6    10    11   ar
     7    11    12   ar
     8    12    13   ar
     9    13    14    1
    10    13    15   ar
    11    15     1    1
    12     1     2   ar
    13     2     3   ar
    14     3     4   ar
    15     4    21    1
    16    21    22    1
    17    22    23    1
    18    23    24    1
    19    24    25    1
    20    25    28    1
    21    28    29    1
    22    29    30    1
    23    30    31    1
    24    25    26    1
    25    26    27    1
    26     4     5   ar
    27     5     6   ar
    28    15    16   ar
    29    16    17    2
    30    16    18   ar
    31    18     7   ar
    32    18    11   ar
    33     6     1   ar
    34    27    22    1
    35    31    28    1
@<TRIPOS>MOLECULE
*****
 31 35 0 0 0
SMALL
GASTEIGER

@<TRIPOS>ATOM
      1 C         142.8187  141.3603  163.6590 C.ar    1  UNL1        0.0681
      2 C         142.1151  142.1574  162.6008 C.ar    1  UNL1        0.0208
      3 C         142.5547  142.0575  161.1702 C.ar    1  UNL1        0.0384
      4 C         143.6978  141.1606  160.7977 C.ar    1  UNL1        0.1385
      5 C         144.4013  140.3635  161.8559 C.ar    1  UNL1        0.0384
      6 C         143.9618  140.4634  163.2865 C.ar    1  UNL1        0.0208
      7 C         139.5960  139.9550  167.4851 C.ar    1  UNL1        0.1447
      8 C         139.1564  140.0549  168.9158 C.ar    1  UNL1        0.0372
      9 C         139.8886  140.9575  169.8641 C.ar    1  UNL1        0.0047
     10 C         141.0604  141.7601  169.3817 C.ar    1  UNL1        0.0195
     11 C         141.5000  141.6601  167.9511 C.ar    1  UNL1        0.0901
     12 N         142.6718  142.4628  167.4686 N.ar    1  UNL1       -0.2317
     13 C         143.1113  142.3628  166.0380 C.ar    1  UNL1        0.1268
     14 C         144.2832  143.1655  165.5556 C.3     1  UNL1        0.0723
     15 N         142.3791  141.4603  165.0897 N.ar    1  UNL1       -0.2625
     16 C         141.2073  140.6577  165.5721 C.ar    1  UNL1        0.2699
     17 O         140.4751  139.7551  164.6238 O.2     1  UNL1       -0.2664
     18 C         140.7677  140.7576  167.0028 C.ar    1  UNL1        0.1080
     19 C         137.6080  138.3610  166.9783 C.3     1  UNL1        0.2525
     20 O         138.8637  139.0524  166.5369 O.3     1  UNL1       -0.4712
     21 O         144.1374  141.0607  159.3670 O.3     1  UNL1       -0.4791
     22 C         143.6427  139.9354  158.5073 C.3     1  UNL1        0.1687
     23 C         143.7343  140.0367  157.0135 C.3     1  UNL1        0.0609
     24 C         143.2396  138.9115  156.1538 C.3     1  UNL1        0.0758
     25 N         142.6534  137.6849  156.7879 N.3     1  UNL1       -0.2737
     26 C         142.5620  137.5836  158.2816 C.3     1  UNL1        0.0758
     27 C         143.0566  138.7089  159.1413 C.3     1  UNL1        0.0609
     28 C         142.1588  136.5596  155.9281 C.3     1  UNL1        0.0575
     29 C         142.8061  135.4279  155.1863 C.3     1  UNL1        0.0160
     30 C         141.4593  134.9683  154.7123 C.3     1  UNL1        0.0028
     31 C         140.8120  136.1000  155.4540 C.3     1  UNL1        0.0160
@<TRIPOS>BOND
     1    19    20    1
     2    20     7    1
     3     7     8   ar
     4     8     9   ar
     5     9    10   ar
     6    10    11   ar
     7    11    12   ar
     8    12    13   ar
     9    13    14    1
    10    13    15   ar
    11    15     1    1
    12     1     2   ar
    13     2     3   ar
    14     3     4   ar
    15     4    21    1
    16    21    22    1
    17    22    23    1
    18    23    24    1
    19    24    25    1
    20    25    28    1
    21    28    29    1
    22    29    30    1
    23    30    31    1
    24    25    26    1
    25    26    27    1
    26     4     5   ar
    27     5     6   ar
    28    15    16   ar
    29    16    17    2
    30    16    18   ar
    31    18     7   ar
    32    18    11   ar
    33     6     1   ar
    34    27    22    1
    35    31    28    1
@<TRIPOS>MOLECULE
*****
 31 35 0 0 0
SMALL
GASTEIGER

@<TRIPOS>ATOM
      1 C         142.7296  140.2129  158.5870 C.ar    1  UNL1        0.0681
      2 C         141.5655  139.2722  158.6862 C.ar    1  UNL1        0.0208
      3 C         141.3559  138.2246  157.6333 C.ar    1  UNL1        0.0384
      4 C         142.3105  138.1177  156.4813 C.ar    1  UNL1        0.1385
      5 C         143.4746  139.0584  156.3821 C.ar    1  UNL1        0.0384
      6 C         143.6842  140.1060  157.4349 C.ar    1  UNL1        0.0208
      7 C         144.5864  141.6153  163.2330 C.ar    1  UNL1        0.1447
      8 C         144.7959  142.6629  164.2859 C.ar    1  UNL1        0.0372
      9 C         144.2865  144.0570  164.0687 C.ar    1  UNL1        0.0047
     10 C         143.5677  144.4034  162.7986 C.ar    1  UNL1        0.0195
     11 C         143.3582  143.3558  161.7458 C.ar    1  UNL1        0.0901
     12 N         142.6392  143.7022  160.4756 N.ar    1  UNL1       -0.2317
     13 C         142.4297  142.6546  159.4227 C.ar    1  UNL1        0.1268
     14 C         141.7108  143.0010  158.1526 C.3     1  UNL1        0.0723
     15 N         142.9391  141.2605  159.6400 N.ar    1  UNL1       -0.2625
     16 C         143.6580  140.9141  160.9100 C.ar    1  UNL1        0.2699
     17 O         144.1674  139.5201  161.1272 O.2     1  UNL1       -0.2664
     18 C         143.8676  141.9617  161.9630 C.ar    1  UNL1        0.1080
     19 C         144.7055  139.4640  164.6848 C.3     1  UNL1        0.2525
     20 O         145.0958  140.2213  163.4503 O.3     1  UNL1       -0.4712
     21 O         142.1009  137.0701  155.4283 O.3     1  UNL1       -0.4791
     22 C         142.3644  135.6273  155.7429 C.3     1  UNL1        0.1687
     23 C         141.4497  134.5643  155.2103 C.3     1  UNL1        0.0609
     24 C         141.7132  133.1216  155.5249 C.3     1  UNL1        0.0758
     25 N         142.8914  132.7417  156.3722 N.3     1  UNL1       -0.2737
     26 C         143.8060  133.8047  156.9048 C.3     1  UNL1        0.0758
     27 C         143.5425  135.2474  156.5902 C.3     1  UNL1        0.0609
     28 C         143.1548  131.2990  156.6868 C.3     1  UNL1        0.0575
     29 C         144.0498  130.5683  157.6436 C.3     1  UNL1        0.0160
     30 C         143.5275  129.2586  157.1318 C.3     1  UNL1        0.0028
     31 C         142.6326  129.9892  156.1752 C.3     1  UNL1        0.0160
@<TRIPOS>BOND
     1    19    20    1
     2    20     7    1
     3     7     8   ar
     4     8     9   ar
     5     9    10   ar
     6    10    11   ar
     7    11    12   ar
     8    12    13   ar
     9    13    14    1
    10    13    15   ar
    11    15     1    1
    12     1     2   ar
    13     2     3   ar
    14     3     4   ar
    15     4    21    1
    16    21    22    1
    17    22    23    1
    18    23    24    1
    19    24    25    1
    20    25    28    1
    21    28    29    1
    22    29    30    1
    23    30    31    1
    24    25    26    1
    25    26    27    1
    26     4     5   ar
    27     5     6   ar
    28    15    16   ar
    29    16    17    2
    30    16    18   ar
    31    18     7   ar
    32    18    11   ar
    33     6     1   ar
    34    27    22    1
    35    31    28    1
@<TRIPOS>MOLECULE
*****
 31 35 0 0 0
SMALL
GASTEIGER

@<TRIPOS>ATOM
      1 C         142.5728  142.6331  163.6403 C.ar    1  UNL1        0.0681
      2 C         142.1519  143.9824  163.1382 C.ar    1  UNL1        0.0208
      3 C         142.3696  144.3489  161.7001 C.ar    1  UNL1        0.0384
      4 C         143.0081  143.3661  160.7640 C.ar    1  UNL1        0.1385
      5 C         143.4290  142.0167  161.2661 C.ar    1  UNL1        0.0384
      6 C         143.2113  141.6502  162.7042 C.ar    1  UNL1        0.0208
      7 C         139.6783  140.3824  167.3223 C.ar    1  UNL1        0.1447
      8 C         139.4607  140.0160  168.7604 C.ar    1  UNL1        0.0372
      9 C         140.4727  140.4084  169.7958 C.ar    1  UNL1        0.0047
     10 C         141.7022  141.1672  169.3930 C.ar    1  UNL1        0.0195
     11 C         141.9199  141.5336  167.9549 C.ar    1  UNL1        0.0901
     12 N         143.1495  142.2925  167.5520 N.ar    1  UNL1       -0.2317
     13 C         143.3671  142.6589  166.1139 C.ar    1  UNL1        0.1268
     14 C         144.5967  143.4178  165.7110 C.3     1  UNL1        0.0723
     15 N         142.3551  142.2666  165.0785 N.ar    1  UNL1       -0.2625
     16 C         141.1256  141.5078  165.4813 C.ar    1  UNL1        0.2699
     17 O         140.1136  141.1154  164.4459 O.2     1  UNL1       -0.2664
     18 C         140.9079  141.1413  166.9195 C.ar    1  UNL1        0.1080
     19 C         138.1039  138.5996  166.2770 C.3     1  UNL1        0.2525
     20 O         138.6664  139.9901  166.2869 O.3     1  UNL1       -0.4712
     21 O         143.2258  143.7326  159.3258 O.3     1  UNL1       -0.4791
     22 C         142.0580  143.8158  158.3881 C.3     1  UNL1        0.1687
     23 C         142.1709  144.6058  157.1179 C.3     1  UNL1        0.0609
     24 C         141.0031  144.6891  156.1802 C.3     1  UNL1        0.0758
     25 N         139.7225  143.9823  156.5126 N.3     1  UNL1       -0.2737
     26 C         139.6096  143.1923  157.7826 C.3     1  UNL1        0.0758
     27 C         140.7774  143.1091  158.7204 C.3     1  UNL1        0.0609
     28 C         138.5547  144.0655  155.5748 C.3     1  UNL1        0.0575
     29 C         137.7338  143.0683  154.8119 C.3     1  UNL1        0.0160
     30 C         136.9032  144.1832  154.2486 C.3     1  UNL1        0.0028
     31 C         137.7240  145.1802  155.0115 C.3     1  UNL1        0.0160
@<TRIPOS>BOND
     1    19    20    1
     2    20     7    1
     3     7     8   ar
     4     8     9   ar
     5     9    10   ar
     6    10    11   ar
     7    11    12   ar
     8    12    13   ar
     9    13    14    1
    10    13    15   ar
    11    15     1    1
    12     1     2   ar
    13     2     3   ar
    14     3     4   ar
    15     4    21    1
    16    21    22    1
    17    22    23    1
    18    23    24    1
    19    24    25    1
    20    25    28    1
    21    28    29    1
    22    29    30    1
    23    30    31    1
    24    25    26    1
    25    26    27    1
    26     4     5   ar
    27     5     6   ar
    28    15    16   ar
    29    16    17    2
    30    16    18   ar
    31    18     7   ar
    32    18    11   ar
    33     6     1   ar
    34    27    22    1
    35    31    28    1
