@<TRIPOS>MOLECULE
*****
 26 28 0 0 0
SMALL
GASTEIGER

@<TRIPOS>ATOM
      1 C         142.5485  140.0157  164.6461 C.ar    1  UNL1        0.2424
      2 C         143.4448  138.8681  165.0061 C.ar    1  UNL1        0.0641
      3 C         143.5866  138.4482  166.4392 C.ar    1  UNL1        0.0674
      4 C         142.8322  139.1759  167.5121 C.ar    1  UNL1        0.2807
      5 O         142.9740  138.7560  168.9451 O.2     1  UNL1       -0.2651
      6 N         141.9358  140.3235  167.1521 N.ar    1  UNL1       -0.1916
      7 N         141.7939  140.7434  165.7190 N.ar    1  UNL1       -0.1248
      8 C         141.1813  141.0511  168.2250 C.ar    1  UNL1        0.0885
      9 C         140.0204  140.3891  168.9061 C.ar    1  UNL1        0.0217
     10 C         139.2659  141.1168  169.9791 C.ar    1  UNL1        0.0335
     11 C         139.6724  142.5065  170.3710 C.ar    1  UNL1        0.1675
     12 F         138.9179  143.2342  171.4439 F       1  UNL1       -0.2018
     13 C         140.8334  143.1685  169.6899 C.ar    1  UNL1        0.1689
     14 F         141.2399  144.5582  170.0817 F       1  UNL1       -0.2017
     15 C         141.5878  142.4408  168.6168 C.ar    1  UNL1        0.0512
     16 O         142.4066  140.4356  163.2130 O.3     1  UNL1       -0.4592
     17 C         142.2040  139.4018  162.1451 C.3     1  UNL1        0.2086
     18 C         141.1430  139.5979  161.1032 C.3     1  UNL1        0.0647
     19 C         139.7282  139.1881  161.3870 C.3     1  UNL1        0.0759
     20 C         137.8439  138.6395  167.0570 C.3     1  UNL1        0.0001
     21 C         138.3150  138.7766  165.6395 C.3     1  UNL1        0.0028
     22 C         138.8471  137.5807  164.9069 C.3     1  UNL1        0.0174
     23 C         139.3181  137.7179  163.4894 C.3     1  UNL1        0.0721
     24 N         139.2572  139.0509  162.8045 N.3     1  UNL1       -0.2726
     25 C         138.7251  140.2468  163.5370 C.3     1  UNL1        0.0721
     26 C         138.2540  140.1097  164.9545 C.3     1  UNL1        0.0174
@<TRIPOS>BOND
     1    20    21    1
     2    21    22    1
     3    22    23    1
     4    23    24    1
     5    24    19    1
     6    19    18    1
     7    18    17    1
     8    17    16    1
     9    16     1    1
    10     1     2   ar
    11     2     3   ar
    12     3     4   ar
    13     4     5    2
    14     4     6   ar
    15     6     8    1
    16     8     9   ar
    17     9    10   ar
    18    10    11   ar
    19    11    12    1
    20    11    13   ar
    21    13    14    1
    22    13    15   ar
    23     6     7   ar
    24    24    25    1
    25    25    26    1
    26    26    21    1
    27     7     1   ar
    28    15     8   ar
@<TRIPOS>MOLECULE
*****
 26 28 0 0 0
SMALL
GASTEIGER

@<TRIPOS>ATOM
      1 C         139.4234  139.8489  164.8402 C.ar    1  UNL1        0.2424
      2 C         138.3254  138.9802  165.3785 C.ar    1  UNL1        0.0641
      3 C         138.0849  138.9056  166.8572 C.ar    1  UNL1        0.0674
      4 C         138.9423  139.6996  167.7976 C.ar    1  UNL1        0.2807
      5 O         138.7018  139.6249  169.2763 O.2     1  UNL1       -0.2651
      6 N         140.0404  140.5683  167.2593 N.ar    1  UNL1       -0.1916
      7 N         140.2809  140.6430  165.7806 N.ar    1  UNL1       -0.1248
      8 C         140.8978  141.3623  168.1996 C.ar    1  UNL1        0.0885
      9 C         142.2486  140.8471  168.5993 C.ar    1  UNL1        0.0217
     10 C         143.1061  141.6411  169.5397 C.ar    1  UNL1        0.0335
     11 C         142.6127  142.9504  170.0804 C.ar    1  UNL1        0.1675
     12 F         143.4701  143.7444  171.0207 F       1  UNL1       -0.2018
     13 C         141.2618  143.4656  169.6807 C.ar    1  UNL1        0.1689
     14 F         140.7684  144.7749  170.2213 F       1  UNL1       -0.2017
     15 C         140.4044  142.6716  168.7403 C.ar    1  UNL1        0.0512
     16 O         139.6639  139.9235  163.3615 O.3     1  UNL1       -0.4592
     17 C         139.3203  138.7551  162.4858 C.3     1  UNL1        0.2086
     18 C         140.4125  137.9560  161.8388 C.3     1  UNL1        0.0647
     19 C         141.6241  137.5629  162.6308 C.3     1  UNL1        0.0759
     20 C         145.9012  141.6112  163.7788 C.3     1  UNL1        0.0001
     21 C         144.8319  140.5991  163.4918 C.3     1  UNL1        0.0028
     22 C         144.4024  140.3423  162.0778 C.3     1  UNL1        0.0174
     23 C         143.3331  139.3302  161.7908 C.3     1  UNL1        0.0721
     24 N         142.6934  138.5750  162.9178 N.3     1  UNL1       -0.2726
     25 C         143.1229  138.8317  164.3318 C.3     1  UNL1        0.0721
     26 C         144.1922  139.8438  164.6188 C.3     1  UNL1        0.0174
@<TRIPOS>BOND
     1    20    21    1
     2    21    22    1
     3    22    23    1
     4    23    24    1
     5    24    19    1
     6    19    18    1
     7    18    17    1
     8    17    16    1
     9    16     1    1
    10     1     2   ar
    11     2     3   ar
    12     3     4   ar
    13     4     5    2
    14     4     6   ar
    15     6     8    1
    16     8     9   ar
    17     9    10   ar
    18    10    11   ar
    19    11    12    1
    20    11    13   ar
    21    13    14    1
    22    13    15   ar
    23     6     7   ar
    24    24    25    1
    25    25    26    1
    26    26    21    1
    27     7     1   ar
    28    15     8   ar
@<TRIPOS>MOLECULE
*****
 26 28 0 0 0
SMALL
GASTEIGER

@<TRIPOS>ATOM
      1 C         143.6957  141.6859  163.1923 C.ar    1  UNL1        0.2424
      2 C         144.9323  140.8838  163.4699 C.ar    1  UNL1        0.0641
      3 C         144.8652  139.6924  164.3788 C.ar    1  UNL1        0.0674
      4 C         143.5614  139.3032  165.0101 C.ar    1  UNL1        0.2807
      5 O         143.4943  138.1119  165.9191 O.2     1  UNL1       -0.2651
      6 N         142.3246  140.1054  164.7325 N.ar    1  UNL1       -0.1916
      7 N         142.3918  141.2968  163.8236 N.ar    1  UNL1       -0.1248
      8 C         141.0208  139.7162  165.3638 C.ar    1  UNL1        0.0885
      9 C         140.0564  138.8438  164.6163 C.ar    1  UNL1        0.0217
     10 C         138.7526  138.4547  165.2476 C.ar    1  UNL1        0.0335
     11 C         138.4132  138.9379  166.6265 C.ar    1  UNL1        0.1675
     12 F         137.1094  138.5487  167.2579 F       1  UNL1       -0.2018
     13 C         139.3776  139.8103  167.3741 C.ar    1  UNL1        0.1689
     14 F         139.0382  140.2935  168.7529 F       1  UNL1       -0.2017
     15 C         140.6815  140.1995  166.7427 C.ar    1  UNL1        0.0512
     16 O         143.7628  142.8773  162.2833 O.3     1  UNL1       -0.4592
     17 C         144.1725  144.2137  162.8276 C.3     1  UNL1        0.2086
     18 C         143.3774  144.8510  163.9284 C.3     1  UNL1        0.0647
     19 C         141.9850  145.3406  163.6612 C.3     1  UNL1        0.0759
     20 C         137.4199  141.4512  163.4818 C.3     1  UNL1        0.0001
     21 C         138.5612  142.4236  163.5266 C.3     1  UNL1        0.0028
     22 C         139.1881  142.9036  162.2513 C.3     1  UNL1        0.0174
     23 C         140.3294  143.8759  162.2961 C.3     1  UNL1        0.0721
     24 N         140.8438  144.3683  163.6163 N.3     1  UNL1       -0.2726
     25 C         140.2169  143.8883  164.8917 C.3     1  UNL1        0.0721
     26 C         139.0756  142.9159  164.8468 C.3     1  UNL1        0.0174
@<TRIPOS>BOND
     1    20    21    1
     2    21    22    1
     3    22    23    1
     4    23    24    1
     5    24    19    1
     6    19    18    1
     7    18    17    1
     8    17    16    1
     9    16     1    1
    10     1     2   ar
    11     2     3   ar
    12     3     4   ar
    13     4     5    2
    14     4     6   ar
    15     6     8    1
    16     8     9   ar
    17     9    10   ar
    18    10    11   ar
    19    11    12    1
    20    11    13   ar
    21    13    14    1
    22    13    15   ar
    23     6     7   ar
    24    24    25    1
    25    25    26    1
    26    26    21    1
    27     7     1   ar
    28    15     8   ar
@<TRIPOS>MOLECULE
*****
 26 28 0 0 0
SMALL
GASTEIGER

@<TRIPOS>ATOM
      1 C         140.7708  144.3332  163.7880 C.ar    1  UNL1        0.2424
      2 C         141.8345  145.3840  163.6690 C.ar    1  UNL1        0.0641
      3 C         143.2438  145.0744  164.0790 C.ar    1  UNL1        0.0674
      4 C         143.5893  143.7141  164.6081 C.ar    1  UNL1        0.2807
      5 O         144.9986  143.4045  165.0181 O.2     1  UNL1       -0.2651
      6 N         142.5255  142.6632  164.7272 N.ar    1  UNL1       -0.1916
      7 N         141.1162  142.9728  164.3171 N.ar    1  UNL1       -0.1248
      8 C         142.8710  141.3028  165.2563 C.ar    1  UNL1        0.0885
      9 C         143.5597  140.3066  164.3713 C.ar    1  UNL1        0.0217
     10 C         143.9052  138.9462  164.9004 C.ar    1  UNL1        0.0335
     11 C         143.5620  138.5820  166.3145 C.ar    1  UNL1        0.1675
     12 F         143.9075  137.2217  166.8436 F       1  UNL1       -0.2018
     13 C         142.8733  139.5783  167.1995 C.ar    1  UNL1        0.1689
     14 F         142.5301  139.2142  168.6135 F       1  UNL1       -0.2017
     15 C         142.5278  140.9387  166.6703 C.ar    1  UNL1        0.0512
     16 O         139.3615  144.6428  163.3780 O.3     1  UNL1       -0.4592
     17 C         138.5261  143.5905  162.7111 C.3     1  UNL1        0.2086
     18 C         137.6115  142.7285  163.5301 C.3     1  UNL1        0.0647
     19 C         137.2816  141.3387  163.0725 C.3     1  UNL1        0.0759
     20 C         140.9519  136.7869  164.4178 C.3     1  UNL1        0.0001
     21 C         140.0344  137.9248  164.0815 C.3     1  UNL1        0.0028
     22 C         139.8454  139.0492  165.0562 C.3     1  UNL1        0.0174
     23 C         138.9279  140.1872  164.7199 C.3     1  UNL1        0.0721
     24 N         138.1992  140.2007  163.4089 N.3     1  UNL1       -0.2726
     25 C         138.3881  139.0764  162.4342 C.3     1  UNL1        0.0721
     26 C         139.3057  137.9384  162.7705 C.3     1  UNL1        0.0174
@<TRIPOS>BOND
     1    20    21    1
     2    21    22    1
     3    22    23    1
     4    23    24    1
     5    24    19    1
     6    19    18    1
     7    18    17    1
     8    17    16    1
     9    16     1    1
    10     1     2   ar
    11     2     3   ar
    12     3     4   ar
    13     4     5    2
    14     4     6   ar
    15     6     8    1
    16     8     9   ar
    17     9    10   ar
    18    10    11   ar
    19    11    12    1
    20    11    13   ar
    21    13    14    1
    22    13    15   ar
    23     6     7   ar
    24    24    25    1
    25    25    26    1
    26    26    21    1
    27     7     1   ar
    28    15     8   ar
@<TRIPOS>MOLECULE
*****
 26 28 0 0 0
SMALL
GASTEIGER

@<TRIPOS>ATOM
      1 C         139.8363  139.0027  165.0541 C.ar    1  UNL1        0.2424
      2 C         138.5570  138.3987  165.5525 C.ar    1  UNL1        0.0641
      3 C         138.0912  138.6765  166.9510 C.ar    1  UNL1        0.0674
      4 C         138.9047  139.5584  167.8512 C.ar    1  UNL1        0.2807
      5 O         138.4390  139.8362  169.2497 O.2     1  UNL1       -0.2651
      6 N         140.1841  140.1625  167.3528 N.ar    1  UNL1       -0.1916
      7 N         140.6499  139.8847  165.9543 N.ar    1  UNL1       -0.1248
      8 C         140.9977  141.0445  168.2530 C.ar    1  UNL1        0.0885
      9 C         142.3523  140.5973  168.7167 C.ar    1  UNL1        0.0217
     10 C         143.1658  141.4792  169.6168 C.ar    1  UNL1        0.0335
     11 C         142.6247  142.8084  170.0534 C.ar    1  UNL1        0.1675
     12 F         143.4382  143.6903  170.9536 F       1  UNL1       -0.2018
     13 C         141.2701  143.2556  169.5897 C.ar    1  UNL1        0.1689
     14 F         140.7290  144.5847  170.0263 F       1  UNL1       -0.2017
     15 C         140.4565  142.3736  168.6895 C.ar    1  UNL1        0.0512
     16 O         140.3021  138.7249  163.6556 O.3     1  UNL1       -0.4592
     17 C         139.4228  137.9615  162.7100 C.3     1  UNL1        0.2086
     18 C         138.8713  138.6357  161.4888 C.3     1  UNL1        0.0647
     19 C         137.8783  139.7508  161.6316 C.3     1  UNL1        0.0759
     20 C         139.2754  144.6184  164.8495 C.3     1  UNL1        0.0001
     21 C         138.9261  143.4015  164.0450 C.3     1  UNL1        0.0028
     22 C         137.7054  142.6005  164.3883 C.3     1  UNL1        0.0174
     23 C         137.3561  141.3836  163.5839 C.3     1  UNL1        0.0721
     24 N         138.2276  140.9677  162.4361 N.3     1  UNL1       -0.2726
     25 C         139.4484  141.7688  162.0927 C.3     1  UNL1        0.0721
     26 C         139.7977  142.9857  162.8972 C.3     1  UNL1        0.0174
@<TRIPOS>BOND
     1    20    21    1
     2    21    22    1
     3    22    23    1
     4    23    24    1
     5    24    19    1
     6    19    18    1
     7    18    17    1
     8    17    16    1
     9    16     1    1
    10     1     2   ar
    11     2     3   ar
    12     3     4   ar
    13     4     5    2
    14     4     6   ar
    15     6     8    1
    16     8     9   ar
    17     9    10   ar
    18    10    11   ar
    19    11    12    1
    20    11    13   ar
    21    13    14    1
    22    13    15   ar
    23     6     7   ar
    24    24    25    1
    25    25    26    1
    26    26    21    1
    27     7     1   ar
    28    15     8   ar
@<TRIPOS>MOLECULE
*****
 26 28 0 0 0
SMALL
GASTEIGER

@<TRIPOS>ATOM
      1 C         140.7214  144.5603  163.7954 C.ar    1  UNL1        0.2424
      2 C         141.9328  145.3116  163.3287 C.ar    1  UNL1        0.0641
      3 C         143.2945  144.9189  163.8204 C.ar    1  UNL1        0.0674
      4 C         143.4446  143.7749  164.7788 C.ar    1  UNL1        0.2807
      5 O         144.8063  143.3822  165.2705 O.2     1  UNL1       -0.2651
      6 N         142.2331  143.0235  165.2456 N.ar    1  UNL1       -0.1916
      7 N         140.8715  143.4162  164.7539 N.ar    1  UNL1       -0.1248
      8 C         142.3833  141.8794  166.2040 C.ar    1  UNL1        0.0885
      9 C         142.0976  142.0806  167.6627 C.ar    1  UNL1        0.0217
     10 C         142.2478  140.9366  168.6211 C.ar    1  UNL1        0.0335
     11 C         142.6837  139.5913  168.1208 C.ar    1  UNL1        0.1675
     12 F         142.8339  138.4472  169.0792 F       1  UNL1       -0.2018
     13 C         142.9694  139.3901  166.6620 C.ar    1  UNL1        0.1689
     14 F         143.4053  138.0449  166.1617 F       1  UNL1       -0.2017
     15 C         142.8192  140.5342  165.7036 C.ar    1  UNL1        0.0512
     16 O         139.3598  144.9530  163.3037 O.3     1  UNL1       -0.4592
     17 C         138.1742  144.0848  163.6053 C.3     1  UNL1        0.2086
     18 C         137.7974  142.9775  162.6662 C.3     1  UNL1        0.0647
     19 C         137.2109  141.7057  163.2033 C.3     1  UNL1        0.0759
     20 C         140.7931  137.0854  164.5525 C.3     1  UNL1        0.0001
     21 C         139.8975  138.2404  164.2152 C.3     1  UNL1        0.0028
     22 C         139.4321  138.4413  162.8035 C.3     1  UNL1        0.0174
     23 C         138.5365  139.5964  162.4662 C.3     1  UNL1        0.0721
     24 N         138.1064  140.5506  163.5406 N.3     1  UNL1       -0.2726
     25 C         138.5719  140.3498  164.9523 C.3     1  UNL1        0.0721
     26 C         139.4674  139.1947  165.2896 C.3     1  UNL1        0.0174
@<TRIPOS>BOND
     1    20    21    1
     2    21    22    1
     3    22    23    1
     4    23    24    1
     5    24    19    1
     6    19    18    1
     7    18    17    1
     8    17    16    1
     9    16     1    1
    10     1     2   ar
    11     2     3   ar
    12     3     4   ar
    13     4     5    2
    14     4     6   ar
    15     6     8    1
    16     8     9   ar
    17     9    10   ar
    18    10    11   ar
    19    11    12    1
    20    11    13   ar
    21    13    14    1
    22    13    15   ar
    23     6     7   ar
    24    24    25    1
    25    25    26    1
    26    26    21    1
    27     7     1   ar
    28    15     8   ar
@<TRIPOS>MOLECULE
*****
 26 28 0 0 0
SMALL
GASTEIGER

@<TRIPOS>ATOM
      1 C         138.3491  140.5097  163.2543 C.ar    1  UNL1        0.2424
      2 C         137.2354  141.5120  163.1833 C.ar    1  UNL1        0.0641
      3 C         137.4810  142.9358  163.5863 C.ar    1  UNL1        0.0674
      4 C         138.8402  143.3574  164.0603 C.ar    1  UNL1        0.2807
      5 O         139.0858  144.7813  164.4632 O.2     1  UNL1       -0.2651
      6 N         139.9540  142.3551  164.1313 N.ar    1  UNL1       -0.1916
      7 N         139.7085  140.9313  163.7283 N.ar    1  UNL1       -0.1248
      8 C         141.3133  142.7767  164.6052 C.ar    1  UNL1        0.0885
      9 C         141.8918  142.1774  165.8527 C.ar    1  UNL1        0.0217
     10 C         143.2511  142.5990  166.3266 C.ar    1  UNL1        0.0335
     11 C         144.0318  143.6199  165.5531 C.ar    1  UNL1        0.1675
     12 F         145.3911  144.0414  166.0271 F       1  UNL1       -0.2018
     13 C         143.4533  144.2192  164.3057 C.ar    1  UNL1        0.1689
     14 F         144.2340  145.2400  163.5322 F       1  UNL1       -0.2017
     15 C         142.0940  143.7975  163.8317 C.ar    1  UNL1        0.0512
     16 O         138.1036  139.0859  162.8513 O.3     1  UNL1       -0.4592
     17 C         138.9331  137.9852  163.4434 C.3     1  UNL1        0.2086
     18 C         140.2380  137.6051  162.8088 C.3     1  UNL1        0.0647
     19 C         141.4748  137.4881  163.6493 C.3     1  UNL1        0.0759
     20 C         145.7658  141.6647  163.2701 C.3     1  UNL1        0.0001
     21 C         144.6930  140.6206  163.3649 C.3     1  UNL1        0.0028
     22 C         144.6193  139.7282  164.5683 C.3     1  UNL1        0.0174
     23 C         143.5465  138.6840  164.6630 C.3     1  UNL1        0.0721
     24 N         142.5475  138.5323  163.5545 N.3     1  UNL1       -0.2726
     25 C         142.6213  139.4247  162.3511 C.3     1  UNL1        0.0721
     26 C         143.6941  140.4688  162.2563 C.3     1  UNL1        0.0174
@<TRIPOS>BOND
     1    20    21    1
     2    21    22    1
     3    22    23    1
     4    23    24    1
     5    24    19    1
     6    19    18    1
     7    18    17    1
     8    17    16    1
     9    16     1    1
    10     1     2   ar
    11     2     3   ar
    12     3     4   ar
    13     4     5    2
    14     4     6   ar
    15     6     8    1
    16     8     9   ar
    17     9    10   ar
    18    10    11   ar
    19    11    12    1
    20    11    13   ar
    21    13    14    1
    22    13    15   ar
    23     6     7   ar
    24    24    25    1
    25    25    26    1
    26    26    21    1
    27     7     1   ar
    28    15     8   ar
@<TRIPOS>MOLECULE
*****
 26 28 0 0 0
SMALL
GASTEIGER

@<TRIPOS>ATOM
      1 C         141.2409  144.3997  163.5816 C.ar    1  UNL1        0.2424
      2 C         140.1920  145.1777  162.8437 C.ar    1  UNL1        0.0641
      3 C         138.8518  144.5605  162.5737 C.ar    1  UNL1        0.0674
      4 C         138.5605  143.1655  163.0415 C.ar    1  UNL1        0.2807
      5 O         137.2202  142.5484  162.7714 O.2     1  UNL1       -0.2651
      6 N         139.6094  142.3875  163.7794 N.ar    1  UNL1       -0.1916
      7 N         140.9497  143.0046  164.0494 N.ar    1  UNL1       -0.1248
      8 C         139.3181  140.9924  164.2472 C.ar    1  UNL1        0.0885
      9 C         138.5436  140.7721  165.5128 C.ar    1  UNL1        0.0217
     10 C         138.2523  139.3770  165.9806 C.ar    1  UNL1        0.0335
     11 C         138.7356  138.2022  165.1828 C.ar    1  UNL1        0.1675
     12 F         138.4443  136.8071  165.6507 F       1  UNL1       -0.2018
     13 C         139.5100  138.4225  163.9173 C.ar    1  UNL1        0.1689
     14 F         139.9932  137.2477  163.1196 F       1  UNL1       -0.2017
     15 C         139.8013  139.8177  163.4495 C.ar    1  UNL1        0.0512
     16 O         142.5812  145.0169  163.8516 O.3     1  UNL1       -0.4592
     17 C         143.8344  144.2465  163.5581 C.3     1  UNL1        0.2086
     18 C         144.5246  143.4911  164.6549 C.3     1  UNL1        0.0647
     19 C         144.3207  142.0111  164.7896 C.3     1  UNL1        0.0759
     20 C         140.5835  139.8652  168.9643 C.3     1  UNL1        0.0001
     21 C         141.5178  140.4017  167.9207 C.3     1  UNL1        0.0028
     22 C         141.9020  139.5487  166.7482 C.3     1  UNL1        0.0174
     23 C         142.8362  140.0852  165.7045 C.3     1  UNL1        0.0721
     24 N         143.3864  141.4747  165.8333 N.3     1  UNL1       -0.2726
     25 C         143.0022  142.3277  167.0057 C.3     1  UNL1        0.0721
     26 C         142.0679  141.7912  168.0494 C.3     1  UNL1        0.0174
@<TRIPOS>BOND
     1    20    21    1
     2    21    22    1
     3    22    23    1
     4    23    24    1
     5    24    19    1
     6    19    18    1
     7    18    17    1
     8    17    16    1
     9    16     1    1
    10     1     2   ar
    11     2     3   ar
    12     3     4   ar
    13     4     5    2
    14     4     6   ar
    15     6     8    1
    16     8     9   ar
    17     9    10   ar
    18    10    11   ar
    19    11    12    1
    20    11    13   ar
    21    13    14    1
    22    13    15   ar
    23     6     7   ar
    24    24    25    1
    25    25    26    1
    26    26    21    1
    27     7     1   ar
    28    15     8   ar
@<TRIPOS>MOLECULE
*****
 26 28 0 0 0
SMALL
GASTEIGER

@<TRIPOS>ATOM
      1 C         143.8041  139.6558  164.7807 C.ar    1  UNL1        0.2424
      2 C         142.9454  138.7350  163.9654 C.ar    1  UNL1        0.0641
      3 C         141.5067  138.5272  164.3355 C.ar    1  UNL1        0.0674
      4 C         140.9267  139.2401  165.5208 C.ar    1  UNL1        0.2807
      5 O         139.4880  139.0323  165.8909 O.2     1  UNL1       -0.2651
      6 N         141.7853  140.1610  166.3362 N.ar    1  UNL1       -0.1916
      7 N         143.2240  140.3689  165.9662 N.ar    1  UNL1       -0.1248
      8 C         141.2052  140.8739  167.5216 C.ar    1  UNL1        0.0885
      9 C         140.9182  142.3443  167.4459 C.ar    1  UNL1        0.0217
     10 C         140.3381  143.0572  168.6313 C.ar    1  UNL1        0.0335
     11 C         140.0451  142.2998  169.8925 C.ar    1  UNL1        0.1675
     12 F         139.4650  143.0128  171.0779 F       1  UNL1       -0.2018
     13 C         140.3321  140.8295  169.9682 C.ar    1  UNL1        0.1689
     14 F         140.0391  140.0721  171.2293 F       1  UNL1       -0.2017
     15 C         140.9122  140.1166  168.7827 C.ar    1  UNL1        0.0512
     16 O         145.2428  139.8637  164.4107 O.3     1  UNL1       -0.4592
     17 C         145.6751  141.1519  163.7752 C.3     1  UNL1        0.2086
     18 C         145.0698  141.5861  162.4733 C.3     1  UNL1        0.0647
     19 C         144.5965  142.9989  162.3005 C.3     1  UNL1        0.0759
     20 C         139.3785  144.7298  164.7040 C.3     1  UNL1        0.0001
     21 C         140.6830  144.2970  164.1031 C.3     1  UNL1        0.0028
     22 C         140.9072  142.8551  163.7560 C.3     1  UNL1        0.0174
     23 C         142.2117  142.4224  163.1551 C.3     1  UNL1        0.0721
     24 N         143.2920  143.4316  162.9013 N.3     1  UNL1       -0.2726
     25 C         143.0678  144.8735  163.2485 C.3     1  UNL1        0.0721
     26 C         141.7633  145.3062  163.8494 C.3     1  UNL1        0.0174
@<TRIPOS>BOND
     1    20    21    1
     2    21    22    1
     3    22    23    1
     4    23    24    1
     5    24    19    1
     6    19    18    1
     7    18    17    1
     8    17    16    1
     9    16     1    1
    10     1     2   ar
    11     2     3   ar
    12     3     4   ar
    13     4     5    2
    14     4     6   ar
    15     6     8    1
    16     8     9   ar
    17     9    10   ar
    18    10    11   ar
    19    11    12    1
    20    11    13   ar
    21    13    14    1
    22    13    15   ar
    23     6     7   ar
    24    24    25    1
    25    25    26    1
    26    26    21    1
    27     7     1   ar
    28    15     8   ar
