@<TRIPOS>MOLECULE
*****
 29 31 0 0 0
SMALL
GASTEIGER

@<TRIPOS>ATOM
      1 C         141.5311  138.8187  165.4389 C.ar    1  UNL1        0.1570
      2 C         141.2204  138.0457  164.1915 C.ar    1  UNL1        0.0574
      3 C         140.0417  138.4281  163.3462 C.ar    1  UNL1        0.0877
      4 N         139.7311  137.6551  162.0989 N.ar    1  UNL1       -0.2435
      5 C         138.5524  138.0375  161.2536 C.ar    1  UNL1        0.1023
      6 C         137.6844  139.1929  161.6557 C.ar    1  UNL1        0.0608
      7 C         137.9951  139.9659  162.9030 C.ar    1  UNL1        0.1384
      8 C         139.1737  139.5835  163.7483 C.ar    1  UNL1        0.0560
      9 C         139.4844  140.3565  164.9957 C.ar    1  UNL1        0.0263
     10 C         140.6631  139.9741  165.8410 C.ar    1  UNL1        0.1395
     11 S         140.9738  140.7471  167.0884 S.O2    1  UNL1        0.0083
     12 O         141.8703  141.6565  166.3016 O.2     1  UNL1       -0.1686
     13 O         140.0773  139.8377  167.8752 O.2     1  UNL1       -0.1686
     14 C         141.2845  141.5200  168.3358 C.3     1  UNL1        0.1152
     15 C         139.9750  141.0906  168.9280 C.3     1  UNL1        0.0240
     16 C         142.5939  141.9495  167.7435 C.3     1  UNL1        0.0240
     17 C         141.5951  142.2930  169.5832 C.3     1  UNL1        0.0240
     18 N         137.1271  141.1213  163.3051 N.pl3   1  UNL1       -0.2004
     19 H         136.1755  140.9741  163.5102 H       1  UNL1        0.2982
     20 C         137.7089  142.5009  163.3946 C.2     1  UNL1        0.3331
     21 N         137.7433  143.3655  164.6199 N.2     1  UNL1        0.0753
     22 N         138.4142  144.6572  164.2572 N.2     1  UNL1       -0.0428
     23 C         138.7944  144.5909  162.8076 C.2     1  UNL1        0.0948
     24 C         139.4886  145.6680  162.0281 C.3     1  UNL1        0.0519
     25 C         138.3586  143.2583  162.2746 C.3     1  UNL1        0.1480
     26 C         138.5404  142.7688  160.8684 C.3     1  UNL1        0.0190
     27 O         142.7098  138.4363  166.2842 O.3     1  UNL1       -0.4741
     28 C         144.3434  139.6587  164.6759 C.3     1  UNL1        0.0512
     29 C         144.1025  138.6720  165.7797 C.3     1  UNL1        0.2056
@<TRIPOS>BOND
     1    28    29    1
     2    29    27    1
     3    27     1    1
     4     1     2   ar
     5     2     3   ar
     6     3     4   ar
     7     4     5   ar
     8     5     6   ar
     9     6     7   ar
    10     7    18    1
    11    18    20    1
    12    20    21    2
    13    21    22    1
    14    22    23    2
    15    23    24    1
    16    23    25    1
    17    25    26    1
    18     7     8   ar
    19     8     9   ar
    20     9    10   ar
    21    10    11    1
    22    11    12    2
    23    11    13    2
    24    11    14    1
    25    14    15    1
    26    14    16    1
    27    14    17    1
    28    10     1   ar
    29     8     3   ar
    30    25    20    1
    31    18    19    1
@<TRIPOS>MOLECULE
*****
 29 31 0 0 0
SMALL
GASTEIGER

@<TRIPOS>ATOM
      1 C         142.0909  139.5070  167.4956 C.ar    1  UNL1        0.1570
      2 C         142.4948  138.6335  166.3450 C.ar    1  UNL1        0.0574
      3 C         141.6110  138.5271  165.1377 C.ar    1  UNL1        0.0877
      4 N         142.0149  137.6535  163.9872 N.ar    1  UNL1       -0.2435
      5 C         141.1310  137.5471  162.7800 C.ar    1  UNL1        0.1023
      6 C         139.8433  138.3142  162.7233 C.ar    1  UNL1        0.0608
      7 C         139.4394  139.1877  163.8738 C.ar    1  UNL1        0.1384
      8 C         140.3232  139.2942  165.0810 C.ar    1  UNL1        0.0560
      9 C         139.9193  140.1677  166.2317 C.ar    1  UNL1        0.0263
     10 C         140.8032  140.2741  167.4389 C.ar    1  UNL1        0.1395
     11 S         140.3993  141.1477  168.5895 S.O2    1  UNL1        0.0083
     12 O         139.5487  140.0383  169.1333 O.2     1  UNL1       -0.1686
     13 O         141.2498  142.2571  168.0458 O.2     1  UNL1       -0.1686
     14 C         139.9954  142.0212  169.7400 C.3     1  UNL1        0.1152
     15 C         140.7519  143.1669  169.1358 C.3     1  UNL1        0.0240
     16 C         139.2389  140.8756  170.3443 C.3     1  UNL1        0.0240
     17 C         139.5916  142.8948  170.8906 C.3     1  UNL1        0.0240
     18 N         138.1516  139.9548  163.8171 N.pl3   1  UNL1       -0.2004
     19 H         137.3512  139.6074  164.2731 H       1  UNL1        0.2982
     20 C         138.0833  141.2513  163.0658 C.2     1  UNL1        0.3331
     21 N         137.6338  141.4244  161.6452 N.2     1  UNL1        0.0753
     22 N         137.7253  142.8825  161.3045 N.2     1  UNL1       -0.0428
     23 C         138.2313  143.6103  162.5146 C.2     1  UNL1        0.0948
     24 C         138.4734  145.0870  162.6180 C.3     1  UNL1        0.0519
     25 C         138.4525  142.6023  163.6031 C.3     1  UNL1        0.1480
     26 C         138.9548  142.8938  164.9860 C.3     1  UNL1        0.0190
     27 O         142.9748  139.6135  168.7029 O.3     1  UNL1       -0.4741
     28 C         143.3499  137.6326  170.3414 C.3     1  UNL1        0.0512
     29 C         142.6144  138.8838  169.9629 C.3     1  UNL1        0.2056
@<TRIPOS>BOND
     1    28    29    1
     2    29    27    1
     3    27     1    1
     4     1     2   ar
     5     2     3   ar
     6     3     4   ar
     7     4     5   ar
     8     5     6   ar
     9     6     7   ar
    10     7    18    1
    11    18    20    1
    12    20    21    2
    13    21    22    1
    14    22    23    2
    15    23    24    1
    16    23    25    1
    17    25    26    1
    18     7     8   ar
    19     8     9   ar
    20     9    10   ar
    21    10    11    1
    22    11    12    2
    23    11    13    2
    24    11    14    1
    25    14    15    1
    26    14    16    1
    27    14    17    1
    28    10     1   ar
    29     8     3   ar
    30    25    20    1
    31    18    19    1
@<TRIPOS>MOLECULE
*****
 29 31 0 0 0
SMALL
GASTEIGER

@<TRIPOS>ATOM
      1 C         138.5855  140.2146  165.9962 C.ar    1  UNL1        0.1570
      2 C         137.7894  140.7505  164.8434 C.ar    1  UNL1        0.0574
      3 C         138.2975  141.9267  164.0633 C.ar    1  UNL1        0.0877
      4 N         137.5013  142.4626  162.9106 N.ar    1  UNL1       -0.2435
      5 C         138.0094  143.6387  162.1306 C.ar    1  UNL1        0.1023
      6 C         139.3137  144.2790  162.5034 C.ar    1  UNL1        0.0608
      7 C         140.1099  143.7431  163.6561 C.ar    1  UNL1        0.1384
      8 C         139.6017  142.5670  164.4361 C.ar    1  UNL1        0.0560
      9 C         140.3979  142.0310  165.5890 C.ar    1  UNL1        0.0263
     10 C         139.8898  140.8549  166.3690 C.ar    1  UNL1        0.1395
     11 S         140.6859  140.3189  167.5218 S.O2    1  UNL1        0.0083
     12 O         141.4596  139.4438  166.5807 O.2     1  UNL1       -0.1686
     13 O         139.9123  141.1940  168.4628 O.2     1  UNL1       -0.1686
     14 C         141.4820  139.7830  168.6746 C.3     1  UNL1        0.1152
     15 C         142.6163  139.4681  167.7449 C.3     1  UNL1        0.0240
     16 C         140.3478  140.0979  169.6043 C.3     1  UNL1        0.0240
     17 C         142.2781  139.2471  169.8274 C.3     1  UNL1        0.0240
     18 N         141.4141  144.3834  164.0289 N.pl3   1  UNL1       -0.2004
     19 H         141.4272  145.1518  164.6442 H       1  UNL1        0.2982
     20 C         142.6985  143.8529  163.4642 C.2     1  UNL1        0.3331
     21 N         143.2374  144.1261  162.0912 N.2     1  UNL1        0.0753
     22 N         144.5415  143.3980  161.9518 N.2     1  UNL1       -0.0428
     23 C         144.8086  142.6749  163.2386 C.2     1  UNL1        0.0948
     24 C         146.0046  141.8207  163.5381 C.3     1  UNL1        0.0519
     25 C         143.6696  142.9560  164.1733 C.3     1  UNL1        0.1480
     26 C         143.5266  142.4323  165.5715 C.3     1  UNL1        0.0190
     27 O         138.0774  139.0384  166.7763 O.3     1  UNL1       -0.4741
     28 C         139.0544  137.3894  165.0224 C.3     1  UNL1        0.0512
     29 C         138.1504  137.6604  166.1882 C.3     1  UNL1        0.2056
@<TRIPOS>BOND
     1    28    29    1
     2    29    27    1
     3    27     1    1
     4     1     2   ar
     5     2     3   ar
     6     3     4   ar
     7     4     5   ar
     8     5     6   ar
     9     6     7   ar
    10     7    18    1
    11    18    20    1
    12    20    21    2
    13    21    22    1
    14    22    23    2
    15    23    24    1
    16    23    25    1
    17    25    26    1
    18     7     8   ar
    19     8     9   ar
    20     9    10   ar
    21    10    11    1
    22    11    12    2
    23    11    13    2
    24    11    14    1
    25    14    15    1
    26    14    16    1
    27    14    17    1
    28    10     1   ar
    29     8     3   ar
    30    25    20    1
    31    18    19    1
@<TRIPOS>MOLECULE
*****
 29 31 0 0 0
SMALL
GASTEIGER

@<TRIPOS>ATOM
      1 C         142.2334  141.1859  167.5225 C.ar    1  UNL1        0.1570
      2 C         141.0637  140.8010  168.3790 C.ar    1  UNL1        0.0574
      3 C         139.9406  139.9951  167.7965 C.ar    1  UNL1        0.0877
      4 N         138.7709  139.6103  168.6530 N.ar    1  UNL1       -0.2435
      5 C         137.6478  138.8044  168.0705 C.ar    1  UNL1        0.1023
      6 C         137.6945  138.3835  166.6315 C.ar    1  UNL1        0.0608
      7 C         138.8642  138.7683  165.7751 C.ar    1  UNL1        0.1384
      8 C         139.9872  139.5742  166.3575 C.ar    1  UNL1        0.0560
      9 C         141.1570  139.9591  165.5010 C.ar    1  UNL1        0.0263
     10 C         142.2801  140.7649  166.0835 C.ar    1  UNL1        0.1395
     11 S         143.4499  141.1498  165.2270 S.O2    1  UNL1        0.0083
     12 O         142.8882  142.5331  165.0815 O.2     1  UNL1       -0.1686
     13 O         144.0115  139.7666  165.3725 O.2     1  UNL1       -0.1686
     14 C         144.6196  141.5347  164.3706 C.3     1  UNL1        0.1152
     15 C         144.3795  142.9800  164.6921 C.3     1  UNL1        0.0240
     16 C         144.8597  140.0894  164.0491 C.3     1  UNL1        0.0240
     17 C         145.7894  141.9196  163.5141 C.3     1  UNL1        0.0240
     18 N         138.9108  138.3474  164.3361 N.pl3   1  UNL1       -0.2004
     19 H         139.2521  137.4560  164.0948 H       1  UNL1        0.2982
     20 C         138.4375  139.2845  163.2648 C.2     1  UNL1        0.3331
     21 N         137.6474  140.5414  163.4789 N.2     1  UNL1        0.0753
     22 N         137.3927  141.1630  162.1376 N.2     1  UNL1       -0.0428
     23 C         138.0255  140.2902  161.0946 C.2     1  UNL1        0.0948
     24 C         138.0145  140.5353  159.6149 C.3     1  UNL1        0.0519
     25 C         138.6712  139.1292  161.7912 C.3     1  UNL1        0.1480
     26 C         139.4192  138.0095  161.1304 C.3     1  UNL1        0.0190
     27 O         143.3566  141.9918  168.1050 O.3     1  UNL1       -0.4741
     28 C         142.8998  143.0664  170.4258 C.3     1  UNL1        0.0512
     29 C         143.5702  142.0171  169.5894 C.3     1  UNL1        0.2056
@<TRIPOS>BOND
     1    28    29    1
     2    29    27    1
     3    27     1    1
     4     1     2   ar
     5     2     3   ar
     6     3     4   ar
     7     4     5   ar
     8     5     6   ar
     9     6     7   ar
    10     7    18    1
    11    18    20    1
    12    20    21    2
    13    21    22    1
    14    22    23    2
    15    23    24    1
    16    23    25    1
    17    25    26    1
    18     7     8   ar
    19     8     9   ar
    20     9    10   ar
    21    10    11    1
    22    11    12    2
    23    11    13    2
    24    11    14    1
    25    14    15    1
    26    14    16    1
    27    14    17    1
    28    10     1   ar
    29     8     3   ar
    30    25    20    1
    31    18    19    1
@<TRIPOS>MOLECULE
*****
 29 31 0 0 0
SMALL
GASTEIGER

@<TRIPOS>ATOM
      1 C         142.2626  140.6985  166.3685 C.ar    1  UNL1        0.1570
      2 C         143.3710  141.6297  165.9758 C.ar    1  UNL1        0.0574
      3 C         143.0620  142.8838  165.2128 C.ar    1  UNL1        0.0877
      4 N         144.1704  143.8150  164.8200 N.ar    1  UNL1       -0.2435
      5 C         143.8614  145.0689  164.0571 C.ar    1  UNL1        0.1023
      6 C         142.4441  145.3916  163.6869 C.ar    1  UNL1        0.0608
      7 C         141.3357  144.4604  164.0797 C.ar    1  UNL1        0.1384
      8 C         141.6447  143.2065  164.8426 C.ar    1  UNL1        0.0560
      9 C         140.5363  142.2752  165.2354 C.ar    1  UNL1        0.0263
     10 C         140.8453  141.0212  165.9984 C.ar    1  UNL1        0.1395
     11 S         139.7369  140.0899  166.3912 S.O2    1  UNL1        0.0083
     12 O         139.5702  140.8332  167.6833 O.2     1  UNL1       -0.1686
     13 O         139.9036  139.3466  165.0990 O.2     1  UNL1       -0.1686
     14 C         138.6286  139.1586  166.7839 C.3     1  UNL1        0.1152
     15 C         138.5107  138.6989  165.3610 C.3     1  UNL1        0.0240
     16 C         138.7465  139.6184  168.2068 C.3     1  UNL1        0.0240
     17 C         137.5203  138.2273  167.1767 C.3     1  UNL1        0.0240
     18 N         139.9184  144.7831  163.7095 N.pl3   1  UNL1       -0.2004
     19 H         139.4696  145.5616  164.1117 H       1  UNL1        0.2982
     20 C         139.1847  143.9196  162.7266 C.2     1  UNL1        0.3331
     21 N         137.9594  143.1032  163.0129 N.2     1  UNL1        0.0753
     22 N         137.5650  142.3999  161.7479 N.2     1  UNL1       -0.0428
     23 C         138.5466  142.7818  160.6799 C.2     1  UNL1        0.0948
     24 C         138.5301  142.3077  159.2570 C.3     1  UNL1        0.0519
     25 C         139.5476  143.7210  161.2847 C.3     1  UNL1        0.1480
     26 C         140.7079  144.3509  160.5727 C.3     1  UNL1        0.0190
     27 O         142.5716  139.4445  167.1315 O.3     1  UNL1       -0.4741
     28 C         142.6957  140.7784  169.3575 C.3     1  UNL1        0.0512
     29 C         142.6099  139.4690  168.6308 C.3     1  UNL1        0.2056
@<TRIPOS>BOND
     1    28    29    1
     2    29    27    1
     3    27     1    1
     4     1     2   ar
     5     2     3   ar
     6     3     4   ar
     7     4     5   ar
     8     5     6   ar
     9     6     7   ar
    10     7    18    1
    11    18    20    1
    12    20    21    2
    13    21    22    1
    14    22    23    2
    15    23    24    1
    16    23    25    1
    17    25    26    1
    18     7     8   ar
    19     8     9   ar
    20     9    10   ar
    21    10    11    1
    22    11    12    2
    23    11    13    2
    24    11    14    1
    25    14    15    1
    26    14    16    1
    27    14    17    1
    28    10     1   ar
    29     8     3   ar
    30    25    20    1
    31    18    19    1
@<TRIPOS>MOLECULE
*****
 29 31 0 0 0
SMALL
GASTEIGER

@<TRIPOS>ATOM
      1 C         139.6958  140.4444  167.3427 C.ar    1  UNL1        0.1570
      2 C         138.8145  139.9435  166.2372 C.ar    1  UNL1        0.0574
      3 C         138.6132  140.7735  165.0040 C.ar    1  UNL1        0.0877
      4 N         137.7318  140.2727  163.8984 N.ar    1  UNL1       -0.2435
      5 C         137.5306  141.1027  162.6654 C.ar    1  UNL1        0.1023
      6 C         138.2106  142.4336  162.5379 C.ar    1  UNL1        0.0608
      7 C         139.0919  142.9345  163.6434 C.ar    1  UNL1        0.1384
      8 C         139.2932  142.1044  164.8765 C.ar    1  UNL1        0.0560
      9 C         140.1746  142.6053  165.9822 C.ar    1  UNL1        0.0263
     10 C         140.3758  141.7753  167.2153 C.ar    1  UNL1        0.1395
     11 S         141.2572  142.2761  168.3209 S.O2    1  UNL1        0.0083
     12 O         142.3680  141.3926  167.8358 O.2     1  UNL1       -0.1686
     13 O         140.1464  143.1597  168.8060 O.2     1  UNL1       -0.1686
     14 C         142.1385  142.7770  169.4265 C.3     1  UNL1        0.1152
     15 C         141.0167  143.6350  169.9320 C.3     1  UNL1        0.0240
     16 C         143.2602  141.9190  168.9211 C.3     1  UNL1        0.0240
     17 C         143.0197  143.2779  170.5322 C.3     1  UNL1        0.0240
     18 N         139.7720  144.2654  163.5160 N.pl3   1  UNL1       -0.2004
     19 H         140.1044  144.7272  164.3193 H       1  UNL1        0.2982
     20 C         139.9455  144.8925  162.1645 C.2     1  UNL1        0.3331
     21 N         139.1465  146.0366  161.6142 N.2     1  UNL1        0.0753
     22 N         139.6557  146.3369  160.2355 N.2     1  UNL1       -0.0428
     23 C         140.7695  145.3784  159.9338 C.2     1  UNL1        0.0948
     24 C         141.5645  145.3224  158.6632 C.3     1  UNL1        0.0519
     25 C         140.9486  144.4858  161.1259 C.3     1  UNL1        0.1480
     26 C         141.9541  143.3805  161.2567 C.3     1  UNL1        0.0190
     27 O         139.8971  139.6144  168.5759 O.3     1  UNL1       -0.4741
     28 C         140.0771  140.1548  171.1107 C.3     1  UNL1        0.0512
     29 C         139.2498  140.0198  169.8668 C.3     1  UNL1        0.2056
@<TRIPOS>BOND
     1    28    29    1
     2    29    27    1
     3    27     1    1
     4     1     2   ar
     5     2     3   ar
     6     3     4   ar
     7     4     5   ar
     8     5     6   ar
     9     6     7   ar
    10     7    18    1
    11    18    20    1
    12    20    21    2
    13    21    22    1
    14    22    23    2
    15    23    24    1
    16    23    25    1
    17    25    26    1
    18     7     8   ar
    19     8     9   ar
    20     9    10   ar
    21    10    11    1
    22    11    12    2
    23    11    13    2
    24    11    14    1
    25    14    15    1
    26    14    16    1
    27    14    17    1
    28    10     1   ar
    29     8     3   ar
    30    25    20    1
    31    18    19    1
@<TRIPOS>MOLECULE
*****
 29 31 0 0 0
SMALL
GASTEIGER

@<TRIPOS>ATOM
      1 C         139.9269  140.2298  167.6927 C.ar    1  UNL1        0.1570
      2 C         138.9658  139.5068  166.7963 C.ar    1  UNL1        0.0574
      3 C         139.4637  138.8290  165.5541 C.ar    1  UNL1        0.0877
      4 N         138.5027  138.1060  164.6577 N.ar    1  UNL1       -0.2435
      5 C         139.0006  137.4283  163.4156 C.ar    1  UNL1        0.1023
      6 C         140.4595  137.4736  163.0700 C.ar    1  UNL1        0.0608
      7 C         141.4205  138.1967  163.9664 C.ar    1  UNL1        0.1384
      8 C         140.9226  138.8744  165.2085 C.ar    1  UNL1        0.0560
      9 C         141.8837  139.5974  166.1049 C.ar    1  UNL1        0.0263
     10 C         141.3858  140.2751  167.3470 C.ar    1  UNL1        0.1395
     11 S         142.3468  140.9982  168.2435 S.O2    1  UNL1        0.0083
     12 O         142.7571  139.6924  168.8570 O.2     1  UNL1       -0.1686
     13 O         141.9366  142.3041  167.6300 O.2     1  UNL1       -0.1686
     14 C         143.3078  141.7213  169.1399 C.3     1  UNL1        0.1152
     15 C         142.9705  140.7817  170.2594 C.3     1  UNL1        0.0240
     16 C         143.6451  142.6609  168.0204 C.3     1  UNL1        0.0240
     17 C         144.2688  142.4444  170.0363 C.3     1  UNL1        0.0240
     18 N         142.8795  138.2420  163.6207 N.pl3   1  UNL1       -0.2004
     19 H         143.5462  137.8868  164.2521 H       1  UNL1        0.2982
     20 C         143.3226  138.8285  162.3132 C.2     1  UNL1        0.3331
     21 N         143.8425  138.0612  161.1338 N.2     1  UNL1        0.0753
     22 N         144.1648  139.0438  160.0471 N.2     1  UNL1       -0.0428
     23 C         143.8441  140.4183  160.5550 C.2     1  UNL1        0.0948
     24 C         144.0141  141.7007  159.7957 C.3     1  UNL1        0.0519
     25 C         143.3236  140.2852  161.9555 C.3     1  UNL1        0.1480
     26 C         142.8816  141.4112  162.8426 C.3     1  UNL1        0.0190
     27 O         139.4290  140.9076  168.9348 O.3     1  UNL1       -0.4741
     28 C         137.7017  139.6536  170.4159 C.3     1  UNL1        0.0512
     29 C         139.1110  140.0963  170.1557 C.3     1  UNL1        0.2056
@<TRIPOS>BOND
     1    28    29    1
     2    29    27    1
     3    27     1    1
     4     1     2   ar
     5     2     3   ar
     6     3     4   ar
     7     4     5   ar
     8     5     6   ar
     9     6     7   ar
    10     7    18    1
    11    18    20    1
    12    20    21    2
    13    21    22    1
    14    22    23    2
    15    23    24    1
    16    23    25    1
    17    25    26    1
    18     7     8   ar
    19     8     9   ar
    20     9    10   ar
    21    10    11    1
    22    11    12    2
    23    11    13    2
    24    11    14    1
    25    14    15    1
    26    14    16    1
    27    14    17    1
    28    10     1   ar
    29     8     3   ar
    30    25    20    1
    31    18    19    1
@<TRIPOS>MOLECULE
*****
 29 31 0 0 0
SMALL
GASTEIGER

@<TRIPOS>ATOM
      1 C         138.3851  142.1920  163.3019 C.ar    1  UNL1        0.1570
      2 C         138.1014  141.0480  164.2297 C.ar    1  UNL1        0.0574
      3 C         138.9435  139.8080  164.1708 C.ar    1  UNL1        0.0877
      4 N         138.6598  138.6640  165.0986 N.ar    1  UNL1       -0.2435
      5 C         139.5019  137.4241  165.0397 C.ar    1  UNL1        0.1023
      6 C         140.6276  137.3282  164.0531 C.ar    1  UNL1        0.0608
      7 C         140.9113  138.4721  163.1253 C.ar    1  UNL1        0.1384
      8 C         140.0692  139.7120  163.1841 C.ar    1  UNL1        0.0560
      9 C         140.3529  140.8561  162.2563 C.ar    1  UNL1        0.0263
     10 C         139.5109  142.0960  162.3152 C.ar    1  UNL1        0.1395
     11 S         139.7945  143.2400  161.3874 S.O2    1  UNL1        0.0083
     12 O         140.8049  143.7764  162.3576 O.2     1  UNL1       -0.1686
     13 O         138.7841  142.7037  160.4172 O.2     1  UNL1       -0.1686
     14 C         140.0781  144.3840  160.4596 C.3     1  UNL1        0.1152
     15 C         140.1780  145.3117  161.6340 C.3     1  UNL1        0.0240
     16 C         139.9783  143.4563  159.2852 C.3     1  UNL1        0.0240
     17 C         140.3618  145.5280  159.5318 C.3     1  UNL1        0.0240
     18 N         142.0370  138.3761  162.1386 N.pl3   1  UNL1       -0.2004
     19 H         142.0469  137.6518  161.4719 H       1  UNL1        0.2982
     20 C         143.1477  139.3838  162.1676 C.2     1  UNL1        0.3331
     21 N         143.6855  140.1376  160.9875 N.2     1  UNL1        0.0753
     22 N         144.7859  141.0343  161.4725 N.2     1  UNL1       -0.0428
     23 C         144.9282  140.8347  162.9523 C.2     1  UNL1        0.0948
     24 C         145.9104  141.5326  163.8457 C.3     1  UNL1        0.0519
     25 C         143.9158  139.8147  163.3820 C.3     1  UNL1        0.1480
     26 C         143.7078  139.3135  164.7804 C.3     1  UNL1        0.0190
     27 O         137.5431  143.4320  163.3607 O.3     1  UNL1       -0.4741
     28 C         138.8566  144.7909  165.1433 C.3     1  UNL1        0.0512
     29 C         137.5551  144.2890  164.5917 C.3     1  UNL1        0.2056
@<TRIPOS>BOND
     1    28    29    1
     2    29    27    1
     3    27     1    1
     4     1     2   ar
     5     2     3   ar
     6     3     4   ar
     7     4     5   ar
     8     5     6   ar
     9     6     7   ar
    10     7    18    1
    11    18    20    1
    12    20    21    2
    13    21    22    1
    14    22    23    2
    15    23    24    1
    16    23    25    1
    17    25    26    1
    18     7     8   ar
    19     8     9   ar
    20     9    10   ar
    21    10    11    1
    22    11    12    2
    23    11    13    2
    24    11    14    1
    25    14    15    1
    26    14    16    1
    27    14    17    1
    28    10     1   ar
    29     8     3   ar
    30    25    20    1
    31    18    19    1
@<TRIPOS>MOLECULE
*****
 29 31 0 0 0
SMALL
GASTEIGER

@<TRIPOS>ATOM
      1 C         142.3248  139.6603  167.9958 C.ar    1  UNL1        0.1570
      2 C         143.1506  139.0063  166.9279 C.ar    1  UNL1        0.0574
      3 C         143.4658  139.7491  165.6634 C.ar    1  UNL1        0.0877
      4 N         144.2916  139.0952  164.5955 N.ar    1  UNL1       -0.2435
      5 C         144.6067  139.8379  163.3310 C.ar    1  UNL1        0.1023
      6 C         144.0960  141.2345  163.1344 C.ar    1  UNL1        0.0608
      7 C         143.2702  141.8884  164.2022 C.ar    1  UNL1        0.1384
      8 C         142.9551  141.1457  165.4667 C.ar    1  UNL1        0.0560
      9 C         142.1293  141.7996  166.5347 C.ar    1  UNL1        0.0263
     10 C         141.8141  141.0569  167.7992 C.ar    1  UNL1        0.1395
     11 S         140.9883  141.7108  168.8672 S.O2    1  UNL1        0.0083
     12 O         142.2231  142.3480  169.4320 O.2     1  UNL1       -0.1686
     13 O         139.7534  141.0736  168.3024 O.2     1  UNL1       -0.1686
     14 C         140.1624  142.3646  169.9351 C.3     1  UNL1        0.1152
     15 C         140.9931  143.6079  169.8162 C.3     1  UNL1        0.0240
     16 C         139.3318  141.1213  170.0539 C.3     1  UNL1        0.0240
     17 C         139.3366  143.0185  171.0029 C.3     1  UNL1        0.0240
     18 N         142.7596  143.2850  164.0056 N.pl3   1  UNL1       -0.2004
     19 H         143.2711  144.0500  164.3555 H       1  UNL1        0.2982
     20 C         141.4696  143.5161  163.2759 C.2     1  UNL1        0.3331
     21 N         141.2793  143.4804  161.7885 N.2     1  UNL1        0.0753
     22 N         139.8354  143.7657  161.4988 N.2     1  UNL1       -0.0428
     23 C         139.1333  143.9779  162.8073 C.2     1  UNL1        0.0948
     24 C         137.6770  144.2895  162.9861 C.3     1  UNL1        0.0519
     25 C         140.1432  143.8236  163.9056 C.3     1  UNL1        0.1480
     26 C         139.8742  143.9539  165.3755 C.3     1  UNL1        0.0190
     27 O         142.0096  138.9175  169.2604 O.3     1  UNL1       -0.4741
     28 C         143.5451  137.2943  170.5860 C.3     1  UNL1        0.0512
     29 C         143.0827  138.6888  170.2832 C.3     1  UNL1        0.2056
@<TRIPOS>BOND
     1    28    29    1
     2    29    27    1
     3    27     1    1
     4     1     2   ar
     5     2     3   ar
     6     3     4   ar
     7     4     5   ar
     8     5     6   ar
     9     6     7   ar
    10     7    18    1
    11    18    20    1
    12    20    21    2
    13    21    22    1
    14    22    23    2
    15    23    24    1
    16    23    25    1
    17    25    26    1
    18     7     8   ar
    19     8     9   ar
    20     9    10   ar
    21    10    11    1
    22    11    12    2
    23    11    13    2
    24    11    14    1
    25    14    15    1
    26    14    16    1
    27    14    17    1
    28    10     1   ar
    29     8     3   ar
    30    25    20    1
    31    18    19    1
