@<TRIPOS>MOLECULE
*****
 32 36 0 0 0
SMALL
GASTEIGER

@<TRIPOS>ATOM
      1 N         141.1225  137.2510  162.5425 N.pl3   1  UNL1       -0.2801
      2 H         141.0304  136.2907  162.3461 H       1  UNL1        0.1552
      3 C         141.8542  138.1453  161.5859 C.ar    1  UNL1        0.2208
      4 N         142.5101  137.5644  160.3685 N.ar    1  UNL1       -0.2111
      5 C         143.2417  138.4587  159.4119 C.ar    1  UNL1        0.1147
      6 C         143.3174  139.9339  159.6729 C.ar    1  UNL1        0.0960
      7 CL        144.0491  140.8281  158.7164 Cl      1  UNL1       -0.0790
      8 C         142.6614  140.5148  160.8904 C.ar    1  UNL1        0.1138
      9 N         141.9298  139.6205  161.8469 N.ar    1  UNL1       -0.2111
     10 C         142.7371  141.9900  161.1514 C.ar    1  UNL1        0.1031
     11 C         142.3208  143.0755  160.2036 C.ar    1  UNL1        0.1196
     12 N         142.5688  144.3950  160.8724 N.ar    1  UNL1       -0.2248
     13 C         143.1383  144.1250  162.2336 C.ar    1  UNL1        0.1479
     14 C         143.5756  145.0406  163.3383 C.ar    1  UNL1        0.0374
     15 C         144.1170  144.4698  164.6154 C.ar    1  UNL1        0.0046
     16 C         144.2210  142.9834  164.7878 C.ar    1  UNL1        0.0191
     17 C         143.7837  142.0678  163.6831 C.ar    1  UNL1        0.0815
     18 N         143.2423  142.6386  162.4060 N.ar    1  UNL1       -0.2874
     19 N         140.2797  139.0138  165.8962 N.ar    1  UNL1       -0.2499
     20 C         141.2490  138.6698  164.8043 C.ar    1  UNL1        0.1112
     21 C         140.5312  137.8198  163.7981 C.ar    1  UNL1        0.0906
     22 C         139.1182  137.6385  164.2682 C.ar    1  UNL1        0.1363
     23 N         138.9628  138.3764  165.5648 N.ar    1  UNL1       -0.1664
     24 C         142.7096  143.1844  170.7902 C.3     1  UNL1        0.0948
     25 C         141.4621  142.3531  170.7388 C.2     1  UNL1        0.2261
     26 O         140.5103  142.3566  171.8981 O.2     1  UNL1       -0.2749
     27 N         141.1665  141.5183  169.5281 N.am    1  UNL1       -0.2794
     28 C         142.1184  141.5148  168.3689 C.3     1  UNL1        0.0954
     29 C         141.8228  140.6800  167.1582 C.3     1  UNL1        0.0459
     30 C         140.5753  139.8486  167.1068 C.3     1  UNL1        0.1087
     31 C         139.6234  139.8521  168.2661 C.3     1  UNL1        0.0459
     32 C         139.9190  140.6869  169.4767 C.3     1  UNL1        0.0954
@<TRIPOS>BOND
     1    24    25    1
     2    25    26    2
     3    25    27   am
     4    27    28    1
     5    28    29    1
     6    29    30    1
     7    30    19    1
     8    19    20   ar
     9    20    21   ar
    10    21     1    1
    11     1     3    1
    12     3     4   ar
    13     4     5   ar
    14     5     6   ar
    15     6     7    1
    16     6     8   ar
    17     8    10    1
    18    10    11   ar
    19    11    12   ar
    20    12    13   ar
    21    13    14   ar
    22    14    15   ar
    23    15    16   ar
    24    16    17   ar
    25    17    18   ar
    26     8     9   ar
    27    21    22   ar
    28    22    23   ar
    29    30    31    1
    30    31    32    1
    31    32    27    1
    32    23    19   ar
    33     9     3   ar
    34    18    10   ar
    35    18    13   ar
    36     1     2    1
@<TRIPOS>MOLECULE
*****
 32 36 0 0 0
SMALL
GASTEIGER

@<TRIPOS>ATOM
      1 N         137.6099  140.0575  160.2192 N.pl3   1  UNL1       -0.2801
      2 H         136.7821  139.7875  159.7598 H       1  UNL1        0.1552
      3 C         138.5127  141.0817  159.5979 C.ar    1  UNL1        0.2208
      4 N         138.0837  141.8044  158.3555 N.ar    1  UNL1       -0.2111
      5 C         138.9864  142.8286  157.7341 C.ar    1  UNL1        0.1147
      6 C         140.3181  143.1301  158.3552 C.ar    1  UNL1        0.0960
      7 CL        141.2208  144.1543  157.7339 Cl      1  UNL1       -0.0790
      8 C         140.7471  142.4073  159.5977 C.ar    1  UNL1        0.1138
      9 N         139.8443  141.3831  160.2190 N.ar    1  UNL1       -0.2111
     10 C         142.0788  142.7088  160.2188 C.ar    1  UNL1        0.1031
     11 C         143.4077  142.1976  159.7469 C.ar    1  UNL1        0.1196
     12 N         144.4655  142.7473  160.6574 N.ar    1  UNL1       -0.2248
     13 C         143.7904  143.5981  161.6919 C.ar    1  UNL1        0.1479
     14 C         144.3282  144.3915  162.8457 C.ar    1  UNL1        0.0374
     15 C         143.3910  145.1610  163.7284 C.ar    1  UNL1        0.0046
     16 C         141.9159  145.1372  163.4574 C.ar    1  UNL1        0.0191
     17 C         141.3780  144.3439  162.3036 C.ar    1  UNL1        0.0815
     18 N         142.3153  143.5743  161.4209 N.ar    1  UNL1       -0.2874
     19 N         138.4481  139.1710  163.9039 N.ar    1  UNL1       -0.2499
     20 C         138.0626  140.1678  162.8513 C.ar    1  UNL1        0.1112
     21 C         137.9684  139.4445  161.5405 C.ar    1  UNL1        0.0906
     22 C         138.2957  138.0008  161.7830 C.ar    1  UNL1        0.1363
     23 N         138.5921  137.8318  163.2437 N.ar    1  UNL1       -0.1664
     24 C         140.2764  141.3638  170.1568 C.3     1  UNL1        0.0948
     25 C         139.2696  140.3362  169.7320 C.2     1  UNL1        0.2261
     26 O         138.4682  139.6000  170.7643 O.2     1  UNL1       -0.2749
     27 N         139.0642  140.0449  168.2750 N.am    1  UNL1       -0.2794
     28 C         139.8657  140.7812  167.2427 C.3     1  UNL1        0.0954
     29 C         139.6603  140.4899  165.7857 C.3     1  UNL1        0.0459
     30 C         138.6535  139.4623  165.3609 C.3     1  UNL1        0.1087
     31 C         137.8520  138.7261  166.3932 C.3     1  UNL1        0.0459
     32 C         138.0574  139.0174  167.8502 C.3     1  UNL1        0.0954
@<TRIPOS>BOND
     1    24    25    1
     2    25    26    2
     3    25    27   am
     4    27    28    1
     5    28    29    1
     6    29    30    1
     7    30    19    1
     8    19    20   ar
     9    20    21   ar
    10    21     1    1
    11     1     3    1
    12     3     4   ar
    13     4     5   ar
    14     5     6   ar
    15     6     7    1
    16     6     8   ar
    17     8    10    1
    18    10    11   ar
    19    11    12   ar
    20    12    13   ar
    21    13    14   ar
    22    14    15   ar
    23    15    16   ar
    24    16    17   ar
    25    17    18   ar
    26     8     9   ar
    27    21    22   ar
    28    22    23   ar
    29    30    31    1
    30    31    32    1
    31    32    27    1
    32    23    19   ar
    33     9     3   ar
    34    18    10   ar
    35    18    13   ar
    36     1     2    1
@<TRIPOS>MOLECULE
*****
 32 36 0 0 0
SMALL
GASTEIGER

@<TRIPOS>ATOM
      1 N         144.7389  140.4806  162.0342 N.pl3   1  UNL1       -0.2801
      2 H         145.5625  140.1216  161.6318 H       1  UNL1        0.1552
      3 C         143.8784  141.4329  161.2580 C.ar    1  UNL1        0.2208
      4 N         144.4374  142.1439  160.0613 N.ar    1  UNL1       -0.2111
      5 C         143.5769  143.0963  159.2851 C.ar    1  UNL1        0.1147
      6 C         142.1573  143.3376  159.7054 C.ar    1  UNL1        0.0960
      7 CL        141.2968  144.2899  158.9292 Cl      1  UNL1       -0.0790
      8 C         141.5983  142.6265  160.9022 C.ar    1  UNL1        0.1138
      9 N         142.4588  141.6742  161.6783 N.ar    1  UNL1       -0.2111
     10 C         140.1788  142.8678  161.3225 C.ar    1  UNL1        0.1031
     11 C         138.9548  142.5613  160.5114 C.ar    1  UNL1        0.1196
     12 N         137.7536  142.9621  161.3154 N.ar    1  UNL1       -0.2248
     13 C         138.2352  143.5162  162.6235 C.ar    1  UNL1        0.1479
     14 C         137.5025  144.0663  163.8111 C.ar    1  UNL1        0.0374
     15 C         138.2687  144.5582  165.0032 C.ar    1  UNL1        0.0046
     16 C         139.7676  144.4999  165.0075 C.ar    1  UNL1        0.0191
     17 C         140.5002  143.9498  163.8199 C.ar    1  UNL1        0.0815
     18 N         139.7340  143.4580  162.6279 N.ar    1  UNL1       -0.2874
     19 N         143.3964  140.1128  165.6574 N.ar    1  UNL1       -0.2499
     20 C         143.5606  140.9067  164.3954 C.ar    1  UNL1        0.1112
     21 C         144.3446  140.0754  163.4235 C.ar    1  UNL1        0.0906
     22 C         144.6649  138.7677  164.0850 C.ar    1  UNL1        0.1363
     23 N         144.0790  138.7908  165.4656 N.ar    1  UNL1       -0.1664
     24 C         139.8119  143.2339  170.6232 C.3     1  UNL1        0.0948
     25 C         140.5156  141.9094  170.6044 C.2     1  UNL1        0.2261
     26 O         140.4991  141.0341  171.8224 O.2     1  UNL1       -0.2749
     27 N         141.2358  141.4602  169.3677 N.am    1  UNL1       -0.2794
     28 C         141.2523  142.3356  168.1497 C.3     1  UNL1        0.0954
     29 C         141.9725  141.8865  166.9130 C.3     1  UNL1        0.0459
     30 C         142.6762  140.5619  166.8942 C.3     1  UNL1        0.1087
     31 C         142.6598  139.6865  168.1121 C.3     1  UNL1        0.0459
     32 C         141.9395  140.1357  169.3489 C.3     1  UNL1        0.0954
@<TRIPOS>BOND
     1    24    25    1
     2    25    26    2
     3    25    27   am
     4    27    28    1
     5    28    29    1
     6    29    30    1
     7    30    19    1
     8    19    20   ar
     9    20    21   ar
    10    21     1    1
    11     1     3    1
    12     3     4   ar
    13     4     5   ar
    14     5     6   ar
    15     6     7    1
    16     6     8   ar
    17     8    10    1
    18    10    11   ar
    19    11    12   ar
    20    12    13   ar
    21    13    14   ar
    22    14    15   ar
    23    15    16   ar
    24    16    17   ar
    25    17    18   ar
    26     8     9   ar
    27    21    22   ar
    28    22    23   ar
    29    30    31    1
    30    31    32    1
    31    32    27    1
    32    23    19   ar
    33     9     3   ar
    34    18    10   ar
    35    18    13   ar
    36     1     2    1
@<TRIPOS>MOLECULE
*****
 32 36 0 0 0
SMALL
GASTEIGER

@<TRIPOS>ATOM
      1 N         141.4492  145.3738  159.7621 N.pl3   1  UNL1       -0.2801
      2 H         142.3784  145.6989  159.7508 H       1  UNL1        0.1552
      3 C         140.7070  145.1795  158.4732 C.ar    1  UNL1        0.2208
      4 N         139.8629  143.9561  158.2708 N.ar    1  UNL1       -0.2111
      5 C         139.1207  143.7618  156.9819 C.ar    1  UNL1        0.1147
      6 C         139.2226  144.7909  155.8953 C.ar    1  UNL1        0.0960
      7 CL        138.4803  144.5966  154.6064 Cl      1  UNL1       -0.0790
      8 C         140.0667  146.0143  156.0977 C.ar    1  UNL1        0.1138
      9 N         140.8088  146.2085  157.3865 N.ar    1  UNL1       -0.2111
     10 C         140.1685  147.0433  155.0110 C.ar    1  UNL1        0.1031
     11 C         140.8577  146.8660  153.6906 C.ar    1  UNL1        0.1196
     12 N         140.7142  148.1435  152.9176 N.ar    1  UNL1       -0.2248
     13 C         139.9363  149.1103  153.7603 C.ar    1  UNL1        0.1479
     14 C         139.4915  150.5219  153.5167 C.ar    1  UNL1        0.0374
     15 C         138.7094  151.2536  154.5669 C.ar    1  UNL1        0.0046
     16 C         138.3722  150.5737  155.8607 C.ar    1  UNL1        0.0191
     17 C         138.8170  149.1621  156.1044 C.ar    1  UNL1        0.0815
     18 N         139.5990  148.4304  155.0542 N.ar    1  UNL1       -0.2874
     19 N         139.9556  143.8935  163.0245 N.ar    1  UNL1       -0.2499
     20 C         140.7298  143.7372  161.7492 C.ar    1  UNL1        0.1112
     21 C         140.7757  145.0729  161.0681 C.ar    1  UNL1        0.0906
     22 C         140.0299  146.0548  161.9225 C.ar    1  UNL1        0.1363
     23 N         139.5230  145.3259  163.1315 N.ar    1  UNL1       -0.1664
     24 C         137.8866  138.4167  166.6263 C.3     1  UNL1        0.0948
     25 C         138.7930  139.5521  166.9994 C.2     1  UNL1        0.2261
     26 O         139.4087  139.6022  168.3663 O.2     1  UNL1       -0.2749
     27 N         139.0837  140.6375  166.0057 N.am    1  UNL1       -0.2794
     28 C         138.4679  140.5874  164.6388 C.3     1  UNL1        0.0954
     29 C         138.7586  141.6727  163.6451 C.3     1  UNL1        0.0459
     30 C         139.6649  142.8082  164.0182 C.3     1  UNL1        0.1087
     31 C         140.2807  142.8583  165.3851 C.3     1  UNL1        0.0459
     32 C         139.9900  141.7730  166.3788 C.3     1  UNL1        0.0954
@<TRIPOS>BOND
     1    24    25    1
     2    25    26    2
     3    25    27   am
     4    27    28    1
     5    28    29    1
     6    29    30    1
     7    30    19    1
     8    19    20   ar
     9    20    21   ar
    10    21     1    1
    11     1     3    1
    12     3     4   ar
    13     4     5   ar
    14     5     6   ar
    15     6     7    1
    16     6     8   ar
    17     8    10    1
    18    10    11   ar
    19    11    12   ar
    20    12    13   ar
    21    13    14   ar
    22    14    15   ar
    23    15    16   ar
    24    16    17   ar
    25    17    18   ar
    26     8     9   ar
    27    21    22   ar
    28    22    23   ar
    29    30    31    1
    30    31    32    1
    31    32    27    1
    32    23    19   ar
    33     9     3   ar
    34    18    10   ar
    35    18    13   ar
    36     1     2    1
@<TRIPOS>MOLECULE
*****
 32 36 0 0 0
SMALL
GASTEIGER

@<TRIPOS>ATOM
      1 N         143.6169  137.7054  161.6211 N.pl3   1  UNL1       -0.2801
      2 H         144.4299  137.2098  161.8713 H       1  UNL1        0.1552
      3 C         143.4416  138.1977  160.2151 C.ar    1  UNL1        0.2208
      4 N         143.9797  139.5404  159.8180 N.ar    1  UNL1       -0.2111
      5 C         143.8044  140.0327  158.4120 C.ar    1  UNL1        0.1147
      6 C         143.0911  139.1823  157.4030 C.ar    1  UNL1        0.0960
      7 CL        142.9158  139.6746  155.9970 Cl      1  UNL1       -0.0790
      8 C         142.5530  137.8395  157.8001 C.ar    1  UNL1        0.1138
      9 N         142.7283  137.3473  159.2061 N.ar    1  UNL1       -0.2111
     10 C         141.8397  136.9891  156.7911 C.ar    1  UNL1        0.1031
     11 C         140.5191  137.3005  156.1516 C.ar    1  UNL1        0.1196
     12 N         140.1850  136.1818  155.2098 N.ar    1  UNL1       -0.2248
     13 C         141.2991  135.1791  155.2673 C.ar    1  UNL1        0.1479
     14 C         141.5145  133.8762  154.5559 C.ar    1  UNL1        0.0374
     15 C         142.7526  133.0723  154.8219 C.ar    1  UNL1        0.0046
     16 C         143.7753  133.5712  155.7993 C.ar    1  UNL1        0.0191
     17 C         143.5599  134.8741  156.5106 C.ar    1  UNL1        0.0815
     18 N         142.3218  135.6780  156.2446 N.ar    1  UNL1       -0.2874
     19 N         141.4337  138.6585  164.6855 N.ar    1  UNL1       -0.2499
     20 C         142.7642  138.5853  163.9967 C.ar    1  UNL1        0.1112
     21 C         142.5535  137.9681  162.6458 C.ar    1  UNL1        0.0906
     22 C         141.0927  137.6599  162.4997 C.ar    1  UNL1        0.1363
     23 N         140.4007  138.0865  163.7602 N.ar    1  UNL1       -0.1664
     24 C         141.5592  141.0199  171.1397 C.3     1  UNL1        0.0948
     25 C         140.4210  140.8535  170.1769 C.2     1  UNL1        0.2261
     26 O         139.0298  141.2358  170.5871 O.2     1  UNL1       -0.2749
     27 N         140.6742  140.3047  168.8040 N.am    1  UNL1       -0.2794
     28 C         142.0655  139.9224  168.3940 C.3     1  UNL1        0.0954
     29 C         142.3186  139.3737  167.0211 C.3     1  UNL1        0.0459
     30 C         141.1805  139.2072  166.0583 C.3     1  UNL1        0.1087
     31 C         139.7892  139.5895  166.4684 C.3     1  UNL1        0.0459
     32 C         139.5361  140.1382  167.8413 C.3     1  UNL1        0.0954
@<TRIPOS>BOND
     1    24    25    1
     2    25    26    2
     3    25    27   am
     4    27    28    1
     5    28    29    1
     6    29    30    1
     7    30    19    1
     8    19    20   ar
     9    20    21   ar
    10    21     1    1
    11     1     3    1
    12     3     4   ar
    13     4     5   ar
    14     5     6   ar
    15     6     7    1
    16     6     8   ar
    17     8    10    1
    18    10    11   ar
    19    11    12   ar
    20    12    13   ar
    21    13    14   ar
    22    14    15   ar
    23    15    16   ar
    24    16    17   ar
    25    17    18   ar
    26     8     9   ar
    27    21    22   ar
    28    22    23   ar
    29    30    31    1
    30    31    32    1
    31    32    27    1
    32    23    19   ar
    33     9     3   ar
    34    18    10   ar
    35    18    13   ar
    36     1     2    1
@<TRIPOS>MOLECULE
*****
 32 36 0 0 0
SMALL
GASTEIGER

@<TRIPOS>ATOM
      1 N         143.2606  143.9543  161.3457 N.pl3   1  UNL1       -0.2801
      2 H         143.8970  144.6941  161.2152 H       1  UNL1        0.1552
      3 C         143.6538  142.7632  162.1683 C.ar    1  UNL1        0.2208
      4 N         145.0071  142.7108  162.8131 N.ar    1  UNL1       -0.2111
      5 C         145.4002  141.5197  163.6358 C.ar    1  UNL1        0.1147
      6 C         144.4400  140.3811  163.8136 C.ar    1  UNL1        0.0960
      7 CL        144.8332  139.1900  164.6363 Cl      1  UNL1       -0.0790
      8 C         143.0866  140.4336  163.1688 C.ar    1  UNL1        0.1138
      9 N         142.6936  141.6246  162.3462 N.ar    1  UNL1       -0.2111
     10 C         142.1265  139.2949  163.3466 C.ar    1  UNL1        0.1031
     11 C         142.1569  137.9918  162.6044 C.ar    1  UNL1        0.1196
     12 N         141.0165  137.1511  163.0970 N.ar    1  UNL1       -0.2248
     13 C         140.2813  137.9346  164.1437 C.ar    1  UNL1        0.1479
     14 C         139.0757  137.6128  164.9762 C.ar    1  UNL1        0.0374
     15 C         138.5562  138.6159  165.9629 C.ar    1  UNL1        0.0046
     16 C         139.2422  139.9409  166.1172 C.ar    1  UNL1        0.0191
     17 C         140.4477  140.2628  165.2847 C.ar    1  UNL1        0.0815
     18 N         140.9672  139.2596  164.2979 N.ar    1  UNL1       -0.2874
     19 N         139.9744  143.5329  159.3238 N.ar    1  UNL1       -0.2499
     20 C         141.3773  143.1113  159.6465 C.ar    1  UNL1        0.1112
     21 C         141.8981  144.0183  160.7218 C.ar    1  UNL1        0.0906
     22 C         140.8169  145.0003  161.0637 C.ar    1  UNL1        0.1363
     23 N         139.6281  144.7004  160.1997 N.ar    1  UNL1       -0.1664
     24 C         136.1683  141.6567  153.9160 C.3     1  UNL1        0.0948
     25 C         136.3791  140.9949  155.2455 C.2     1  UNL1        0.2261
     26 O         135.6910  139.6986  155.5554 O.2     1  UNL1       -0.2749
     27 N         137.2779  141.6294  156.2651 N.am    1  UNL1       -0.2794
     28 C         137.9660  142.9257  155.9551 C.3     1  UNL1        0.0954
     29 C         138.8648  143.5602  156.9747 C.3     1  UNL1        0.0459
     30 C         139.0755  142.8984  158.3042 C.3     1  UNL1        0.1087
     31 C         138.3875  141.6020  158.6141 C.3     1  UNL1        0.0459
     32 C         137.4886  140.9676  157.5946 C.3     1  UNL1        0.0954
@<TRIPOS>BOND
     1    24    25    1
     2    25    26    2
     3    25    27   am
     4    27    28    1
     5    28    29    1
     6    29    30    1
     7    30    19    1
     8    19    20   ar
     9    20    21   ar
    10    21     1    1
    11     1     3    1
    12     3     4   ar
    13     4     5   ar
    14     5     6   ar
    15     6     7    1
    16     6     8   ar
    17     8    10    1
    18    10    11   ar
    19    11    12   ar
    20    12    13   ar
    21    13    14   ar
    22    14    15   ar
    23    15    16   ar
    24    16    17   ar
    25    17    18   ar
    26     8     9   ar
    27    21    22   ar
    28    22    23   ar
    29    30    31    1
    30    31    32    1
    31    32    27    1
    32    23    19   ar
    33     9     3   ar
    34    18    10   ar
    35    18    13   ar
    36     1     2    1
@<TRIPOS>MOLECULE
*****
 32 36 0 0 0
SMALL
GASTEIGER

@<TRIPOS>ATOM
      1 N         142.9153  138.1926  158.0855 N.pl3   1  UNL1       -0.2801
      2 H         143.7873  138.6085  158.2750 H       1  UNL1        0.1552
      3 C         142.7330  137.3628  156.8493 C.ar    1  UNL1        0.2208
      4 N         142.6662  138.0246  155.5049 N.ar    1  UNL1       -0.2111
      5 C         142.4839  137.1949  154.2687 C.ar    1  UNL1        0.1147
      6 C         142.3684  135.7032  154.3769 C.ar    1  UNL1        0.0960
      7 CL        142.1861  134.8735  153.1407 Cl      1  UNL1       -0.0790
      8 C         142.4352  135.0414  155.7214 C.ar    1  UNL1        0.1138
      9 N         142.6175  135.8712  156.9575 N.ar    1  UNL1       -0.2111
     10 C         142.3197  133.5497  155.8296 C.ar    1  UNL1        0.1031
     11 C         141.2570  132.6996  155.1988 C.ar    1  UNL1        0.1196
     12 N         141.5272  131.2709  155.5670 N.ar    1  UNL1       -0.2248
     13 C         142.7569  131.2379  156.4253 C.ar    1  UNL1        0.1479
     14 C         143.4938  130.1074  157.0801 C.ar    1  UNL1        0.0374
     15 C         144.7206  130.3853  157.8972 C.ar    1  UNL1        0.0046
     16 C         145.2105  131.7938  158.0595 C.ar    1  UNL1        0.0191
     17 C         144.4735  132.9243  157.4047 C.ar    1  UNL1        0.0815
     18 N         143.2467  132.6464  156.5876 N.ar    1  UNL1       -0.2874
     19 N         140.4843  138.7018  161.0681 N.ar    1  UNL1       -0.2499
     20 C         141.8704  138.5221  160.5236 C.ar    1  UNL1        0.1112
     21 C         141.7691  138.3887  159.0329 C.ar    1  UNL1        0.0906
     22 C         140.3204  138.4860  158.6562 C.ar    1  UNL1        0.1363
     23 N         139.5263  138.6794  159.9140 N.ar    1  UNL1       -0.1664
     24 C         139.7484  140.4012  167.6878 C.3     1  UNL1        0.0948
     25 C         139.0273  139.3891  166.8478 C.2     1  UNL1        0.2261
     26 O         137.9419  138.5489  167.4527 O.2     1  UNL1       -0.2749
     27 N         139.3915  139.2173  165.4029 N.am    1  UNL1       -0.2794
     28 C         140.4769  140.0575  164.7980 C.3     1  UNL1        0.0954
     29 C         140.8412  139.8857  163.3531 C.3     1  UNL1        0.0459
     30 C         140.1200  138.8736  162.5130 C.3     1  UNL1        0.1087
     31 C         139.0346  138.0334  163.1179 C.3     1  UNL1        0.0459
     32 C         138.6704  138.2052  164.5628 C.3     1  UNL1        0.0954
@<TRIPOS>BOND
     1    24    25    1
     2    25    26    2
     3    25    27   am
     4    27    28    1
     5    28    29    1
     6    29    30    1
     7    30    19    1
     8    19    20   ar
     9    20    21   ar
    10    21     1    1
    11     1     3    1
    12     3     4   ar
    13     4     5   ar
    14     5     6   ar
    15     6     7    1
    16     6     8   ar
    17     8    10    1
    18    10    11   ar
    19    11    12   ar
    20    12    13   ar
    21    13    14   ar
    22    14    15   ar
    23    15    16   ar
    24    16    17   ar
    25    17    18   ar
    26     8     9   ar
    27    21    22   ar
    28    22    23   ar
    29    30    31    1
    30    31    32    1
    31    32    27    1
    32    23    19   ar
    33     9     3   ar
    34    18    10   ar
    35    18    13   ar
    36     1     2    1
@<TRIPOS>MOLECULE
*****
 32 36 0 0 0
SMALL
GASTEIGER

@<TRIPOS>ATOM
      1 N         143.7610  138.5763  162.3100 N.pl3   1  UNL1       -0.2801
      2 H         143.7669  137.7090  162.7758 H       1  UNL1        0.1552
      3 C         143.9732  139.8442  163.0830 C.ar    1  UNL1        0.2208
      4 N         145.2824  140.5701  162.9882 N.ar    1  UNL1       -0.2111
      5 C         145.4946  141.8380  163.7612 C.ar    1  UNL1        0.1147
      6 C         144.3976  142.3799  164.6289 C.ar    1  UNL1        0.0960
      7 CL        144.6099  143.6478  165.4018 Cl      1  UNL1       -0.0790
      8 C         143.0884  141.6539  164.7236 C.ar    1  UNL1        0.1138
      9 N         142.8762  140.3861  163.9507 N.ar    1  UNL1       -0.2111
     10 C         141.9914  142.1959  165.5913 C.ar    1  UNL1        0.1031
     11 C         140.6627  142.7058  165.1173 C.ar    1  UNL1        0.1196
     12 N         139.8807  143.1481  166.3184 N.ar    1  UNL1       -0.2248
     13 C         140.7260  142.9116  167.5348 C.ar    1  UNL1        0.1479
     14 C         140.4763  143.1560  168.9935 C.ar    1  UNL1        0.0374
     15 C         141.5312  142.8119  170.0028 C.ar    1  UNL1        0.0046
     16 C         142.8357  142.2234  169.5534 C.ar    1  UNL1        0.0191
     17 C         143.0853  141.9790  168.0947 C.ar    1  UNL1        0.0815
     18 N         142.0304  142.3230  167.0854 N.ar    1  UNL1       -0.2874
     19 N         142.9617  138.0008  158.5556 N.ar    1  UNL1       -0.2499
     20 C         143.0251  137.5104  159.9718 C.ar    1  UNL1        0.1112
     21 C         143.5399  138.6298  160.8274 C.ar    1  UNL1        0.0906
     22 C         143.7946  139.8121  159.9399 C.ar    1  UNL1        0.1363
     23 N         143.4373  139.4234  158.5360 N.ar    1  UNL1       -0.1664
     24 C         141.5675  133.4049  153.6380 C.3     1  UNL1        0.0948
     25 C         141.1280  134.8294  153.8039 C.2     1  UNL1        0.2261
     26 O         140.2300  135.4610  152.7818 O.2     1  UNL1       -0.2749
     27 N         141.5864  135.6222  154.9918 N.am    1  UNL1       -0.2794
     28 C         142.4844  134.9906  156.0139 C.3     1  UNL1        0.0954
     29 C         142.9428  135.7834  157.2018 C.3     1  UNL1        0.0459
     30 C         142.5033  137.2079  157.3677 C.3     1  UNL1        0.1087
     31 C         141.6053  137.8396  156.3457 C.3     1  UNL1        0.0459
     32 C         141.1468  137.0468  155.1577 C.3     1  UNL1        0.0954
@<TRIPOS>BOND
     1    24    25    1
     2    25    26    2
     3    25    27   am
     4    27    28    1
     5    28    29    1
     6    29    30    1
     7    30    19    1
     8    19    20   ar
     9    20    21   ar
    10    21     1    1
    11     1     3    1
    12     3     4   ar
    13     4     5   ar
    14     5     6   ar
    15     6     7    1
    16     6     8   ar
    17     8    10    1
    18    10    11   ar
    19    11    12   ar
    20    12    13   ar
    21    13    14   ar
    22    14    15   ar
    23    15    16   ar
    24    16    17   ar
    25    17    18   ar
    26     8     9   ar
    27    21    22   ar
    28    22    23   ar
    29    30    31    1
    30    31    32    1
    31    32    27    1
    32    23    19   ar
    33     9     3   ar
    34    18    10   ar
    35    18    13   ar
    36     1     2    1
@<TRIPOS>MOLECULE
*****
 32 36 0 0 0
SMALL
GASTEIGER

@<TRIPOS>ATOM
      1 N         141.8560  145.1747  160.3146 N.pl3   1  UNL1       -0.2801
      2 H         142.7164  145.6476  160.2414 H       1  UNL1        0.1552
      3 C         141.3756  144.6943  161.6519 C.ar    1  UNL1        0.2208
      4 N         140.4707  145.5589  162.4786 N.ar    1  UNL1       -0.2111
      5 C         139.9903  145.0785  163.8159 C.ar    1  UNL1        0.1147
      6 C         140.4147  143.7334  164.3264 C.ar    1  UNL1        0.0960
      7 CL        139.9343  143.2530  165.6637 Cl      1  UNL1       -0.0790
      8 C         141.3196  142.8687  163.4996 C.ar    1  UNL1        0.1138
      9 N         141.8000  143.3492  162.1624 N.ar    1  UNL1       -0.2111
     10 C         141.7441  141.5237  164.0101 C.ar    1  UNL1        0.1031
     11 C         143.0999  141.1719  164.5466 C.ar    1  UNL1        0.1196
     12 N         143.0809  139.7250  164.9418 N.ar    1  UNL1       -0.2248
     13 C         141.7133  139.1826  164.6496 C.ar    1  UNL1        0.1479
     14 C         141.1136  137.8200  164.8334 C.ar    1  UNL1        0.0374
     15 C         139.6877  137.5691  164.4414 C.ar    1  UNL1        0.0046
     16 C         138.8615  138.6808  163.8655 C.ar    1  UNL1        0.0191
     17 C         139.4611  140.0433  163.6817 C.ar    1  UNL1        0.0815
     18 N         140.8871  140.2942  164.0737 N.ar    1  UNL1       -0.2874
     19 N         139.3856  144.0118  157.5560 N.ar    1  UNL1       -0.2499
     20 C         139.9517  143.8980  158.9404 C.ar    1  UNL1        0.1112
     21 C         141.0256  144.9348  159.0887 C.ar    1  UNL1        0.0906
     22 C         141.1231  145.6894  157.7960 C.ar    1  UNL1        0.1363
     23 N         140.1096  145.1190  156.8487 N.ar    1  UNL1       -0.1664
     24 C         134.1877  141.1396  154.0945 C.3     1  UNL1        0.0948
     25 C         134.9959  140.6323  155.2518 C.2     1  UNL1        0.2261
     26 O         134.7067  139.2801  155.8330 O.2     1  UNL1       -0.2749
     27 N         136.0933  141.4772  155.8279 N.am    1  UNL1       -0.2794
     28 C         136.3825  142.8293  155.2466 C.3     1  UNL1        0.0954
     29 C         137.4799  143.6742  155.8226 C.3     1  UNL1        0.0459
     30 C         138.2882  143.1669  156.9799 C.3     1  UNL1        0.1087
     31 C         137.9990  141.8148  157.5612 C.3     1  UNL1        0.0459
     32 C         136.9016  140.9699  156.9852 C.3     1  UNL1        0.0954
@<TRIPOS>BOND
     1    24    25    1
     2    25    26    2
     3    25    27   am
     4    27    28    1
     5    28    29    1
     6    29    30    1
     7    30    19    1
     8    19    20   ar
     9    20    21   ar
    10    21     1    1
    11     1     3    1
    12     3     4   ar
    13     4     5   ar
    14     5     6   ar
    15     6     7    1
    16     6     8   ar
    17     8    10    1
    18    10    11   ar
    19    11    12   ar
    20    12    13   ar
    21    13    14   ar
    22    14    15   ar
    23    15    16   ar
    24    16    17   ar
    25    17    18   ar
    26     8     9   ar
    27    21    22   ar
    28    22    23   ar
    29    30    31    1
    30    31    32    1
    31    32    27    1
    32    23    19   ar
    33     9     3   ar
    34    18    10   ar
    35    18    13   ar
    36     1     2    1
