@<TRIPOS>MOLECULE
*****
 24 26 0 0 0
SMALL
GASTEIGER

@<TRIPOS>ATOM
      1 C         143.3432  142.3793  167.4519 C.3     1  UNL1        0.0966
      2 C         143.1206  142.0505  166.0054 C.2     1  UNL1        0.2451
      3 O         144.2602  142.1325  165.0336 O.2     1  UNL1       -0.2731
      4 N         141.7583  141.6396  165.5307 N.am    1  UNL1       -0.1782
      5 N         141.3859  141.2829  164.1222 N.2     1  UNL1       -0.1797
      6 C         139.9266  140.9362  164.1022 C.2     1  UNL1        0.0808
      7 C         139.3971  141.0787  165.4983 C.3     1  UNL1        0.0738
      8 C         140.5291  141.5134  166.3813 C.3     1  UNL1        0.1273
      9 C         139.1357  140.5201  162.8974 C.ar    1  UNL1        0.0448
     10 C         139.0240  141.4411  161.7188 C.ar    1  UNL1        0.0331
     11 C         138.2331  141.0250  160.5141 C.ar    1  UNL1        0.1403
     12 F         138.1214  141.9460  159.3354 F       1  UNL1       -0.2042
     13 C         137.5539  139.6878  160.4881 C.ar    1  UNL1        0.0319
     14 C         137.6656  138.7668  161.6667 C.ar    1  UNL1        0.0320
     15 C         138.4565  139.1829  162.8713 C.ar    1  UNL1        0.1414
     16 F         138.5682  138.2619  164.0500 F       1  UNL1       -0.2041
     17 C         140.4465  141.7759  167.8558 C.ar    1  UNL1        0.0011
     18 C         140.4689  140.6303  168.8239 C.ar    1  UNL1       -0.0024
     19 C         140.3863  140.8928  170.2985 C.ar    1  UNL1        0.0028
     20 C         140.2814  142.3007  170.8049 C.ar    1  UNL1        0.0366
     21 C         140.2590  143.4464  169.8368 C.ar    1  UNL1        0.1334
     22 O         140.1541  144.8544  170.3433 O.3     1  UNL1       -0.5055
     23 C         140.3416  143.1838  168.3623 C.ar    1  UNL1        0.0340
     24 H         140.1025  145.0183  171.2644 H       1  UNL1        0.2922
@<TRIPOS>BOND
     1     1     2    1
     2     2     3    2
     3     2     4   am
     4     4     5    1
     5     5     6    2
     6     6     9    1
     7     9    10   ar
     8    10    11   ar
     9    11    12    1
    10    11    13   ar
    11    13    14   ar
    12    14    15   ar
    13    15    16    1
    14     6     7    1
    15     7     8    1
    16     8    17    1
    17    17    18   ar
    18    18    19   ar
    19    19    20   ar
    20    20    21   ar
    21    21    22    1
    22    21    23   ar
    23     8     4    1
    24    23    17   ar
    25    15     9   ar
    26    22    24    1
@<TRIPOS>MOLECULE
*****
 24 26 0 0 0
SMALL
GASTEIGER

@<TRIPOS>ATOM
      1 C         142.9258  139.5364  167.9322 C.3     1  UNL1        0.0966
      2 C         142.7020  139.2045  166.4866 C.2     1  UNL1        0.2451
      3 O         143.7199  138.3980  165.7359 O.2     1  UNL1       -0.2731
      4 N         141.4603  139.6790  165.7917 N.am    1  UNL1       -0.1782
      5 N         141.1013  139.4263  164.3574 N.2     1  UNL1       -0.1797
      6 C         139.7786  140.0807  164.0883 C.2     1  UNL1        0.0808
      7 C         139.3202  140.7380  165.3563 C.3     1  UNL1        0.0738
      8 C         140.3595  140.4897  166.4090 C.3     1  UNL1        0.1273
      9 C         139.0435  140.0784  162.7807 C.ar    1  UNL1        0.0448
     10 C         138.9981  141.3222  161.9436 C.ar    1  UNL1        0.0331
     11 C         138.2630  141.3197  160.6361 C.ar    1  UNL1        0.1403
     12 F         138.2176  142.5636  159.7989 F       1  UNL1       -0.2042
     13 C         137.5734  140.0735  160.1657 C.ar    1  UNL1        0.0319
     14 C         137.6188  138.8297  161.0028 C.ar    1  UNL1        0.0320
     15 C         138.3539  138.8321  162.3103 C.ar    1  UNL1        0.1414
     16 F         138.3994  137.5882  163.1475 F       1  UNL1       -0.2041
     17 C         140.3072  140.9681  167.8298 C.ar    1  UNL1        0.0011
     18 C         140.5850  142.4076  168.1471 C.ar    1  UNL1       -0.0024
     19 C         140.5327  142.8860  169.5678 C.ar    1  UNL1        0.0028
     20 C         140.2025  141.9249  170.6711 C.ar    1  UNL1        0.0366
     21 C         139.9247  140.4854  170.3537 C.ar    1  UNL1        0.1334
     22 O         139.5945  139.5244  171.4571 O.3     1  UNL1       -0.5055
     23 C         139.9770  140.0071  168.9331 C.ar    1  UNL1        0.0340
     24 H         139.5618  139.8232  172.3446 H       1  UNL1        0.2922
@<TRIPOS>BOND
     1     1     2    1
     2     2     3    2
     3     2     4   am
     4     4     5    1
     5     5     6    2
     6     6     9    1
     7     9    10   ar
     8    10    11   ar
     9    11    12    1
    10    11    13   ar
    11    13    14   ar
    12    14    15   ar
    13    15    16    1
    14     6     7    1
    15     7     8    1
    16     8    17    1
    17    17    18   ar
    18    18    19   ar
    19    19    20   ar
    20    20    21   ar
    21    21    22    1
    22    21    23   ar
    23     8     4    1
    24    23    17   ar
    25    15     9   ar
    26    22    24    1
@<TRIPOS>MOLECULE
*****
 24 26 0 0 0
SMALL
GASTEIGER

@<TRIPOS>ATOM
      1 C         142.8085  139.2497  167.6859 C.3     1  UNL1        0.0966
      2 C         142.9212  139.7704  166.2838 C.2     1  UNL1        0.2451
      3 O         143.8010  139.0692  165.2917 O.2     1  UNL1       -0.2731
      4 N         142.1541  140.9924  165.8736 N.am    1  UNL1       -0.1782
      5 N         142.1668  141.6264  164.5143 N.2     1  UNL1       -0.1797
      6 C         141.2602  142.8209  164.5514 C.2     1  UNL1        0.0808
      7 C         140.6872  142.9251  165.9336 C.3     1  UNL1        0.0738
      8 C         141.2396  141.7951  166.7509 C.3     1  UNL1        0.1273
      9 C         140.9764  143.7483  163.4070 C.ar    1  UNL1        0.0448
     10 C         141.7110  143.5850  162.1094 C.ar    1  UNL1        0.0331
     11 C         141.4272  144.5124  160.9652 C.ar    1  UNL1        0.1403
     12 F         142.1618  144.3492  159.6675 F       1  UNL1       -0.2042
     13 C         140.4089  145.6030  161.1185 C.ar    1  UNL1        0.0319
     14 C         139.6743  145.7663  162.4160 C.ar    1  UNL1        0.0320
     15 C         139.9581  144.8389  163.5603 C.ar    1  UNL1        0.1414
     16 F         139.2235  145.0022  164.8580 F       1  UNL1       -0.2041
     17 C         140.9317  141.5166  168.1923 C.ar    1  UNL1        0.0011
     18 C         139.7803  140.6262  168.5547 C.ar    1  UNL1       -0.0024
     19 C         139.4723  140.3477  169.9961 C.ar    1  UNL1        0.0028
     20 C         140.3158  140.9596  171.0750 C.ar    1  UNL1        0.0366
     21 C         141.4673  141.8501  170.7126 C.ar    1  UNL1        0.1334
     22 O         142.3107  142.4620  171.7915 O.3     1  UNL1       -0.5055
     23 C         141.7751  142.1285  169.2712 C.ar    1  UNL1        0.0340
     24 H         142.1184  142.2880  172.6919 H       1  UNL1        0.2922
@<TRIPOS>BOND
     1     1     2    1
     2     2     3    2
     3     2     4   am
     4     4     5    1
     5     5     6    2
     6     6     9    1
     7     9    10   ar
     8    10    11   ar
     9    11    12    1
    10    11    13   ar
    11    13    14   ar
    12    14    15   ar
    13    15    16    1
    14     6     7    1
    15     7     8    1
    16     8    17    1
    17    17    18   ar
    18    18    19   ar
    19    19    20   ar
    20    20    21   ar
    21    21    22    1
    22    21    23   ar
    23     8     4    1
    24    23    17   ar
    25    15     9   ar
    26    22    24    1
@<TRIPOS>MOLECULE
*****
 24 26 0 0 0
SMALL
GASTEIGER

@<TRIPOS>ATOM
      1 C         138.4077  141.7047  162.2060 C.3     1  UNL1        0.0966
      2 C         138.5277  140.8903  163.4600 C.2     1  UNL1        0.2451
      3 O         137.8651  139.5475  163.5484 O.2     1  UNL1       -0.2731
      4 N         139.3103  141.4186  164.6255 N.am    1  UNL1       -0.1782
      5 N         139.5168  140.7216  165.9375 N.2     1  UNL1       -0.1797
      6 C         140.3580  141.6089  166.8065 C.2     1  UNL1        0.0808
      7 C         140.6713  142.8544  166.0315 C.3     1  UNL1        0.0738
      8 C         140.0238  142.7368  164.6836 C.3     1  UNL1        0.1273
      9 C         140.8069  141.3042  168.2050 C.ar    1  UNL1        0.0448
     10 C         141.3978  139.9638  168.5277 C.ar    1  UNL1        0.0331
     11 C         141.8467  139.6592  169.9261 C.ar    1  UNL1        0.1403
     12 F         142.4376  138.3188  170.2489 F       1  UNL1       -0.2042
     13 C         141.7048  140.6950  171.0018 C.ar    1  UNL1        0.0319
     14 C         141.1140  142.0354  170.6790 C.ar    1  UNL1        0.0320
     15 C         140.6651  142.3400  169.2806 C.ar    1  UNL1        0.1414
     16 F         140.0742  143.6805  168.9578 F       1  UNL1       -0.2041
     17 C         140.0799  143.7581  163.5864 C.ar    1  UNL1        0.0011
     18 C         138.9895  144.7798  163.4562 C.ar    1  UNL1       -0.0024
     19 C         139.0456  145.8011  162.3590 C.ar    1  UNL1        0.0028
     20 C         140.1922  145.8006  161.3920 C.ar    1  UNL1        0.0366
     21 C         141.2828  144.7789  161.5221 C.ar    1  UNL1        0.1334
     22 O         142.4294  144.7785  160.5550 O.3     1  UNL1       -0.5055
     23 C         141.2266  143.7577  162.6193 C.ar    1  UNL1        0.0340
     24 H         142.4644  145.4164  159.8697 H       1  UNL1        0.2922
@<TRIPOS>BOND
     1     1     2    1
     2     2     3    2
     3     2     4   am
     4     4     5    1
     5     5     6    2
     6     6     9    1
     7     9    10   ar
     8    10    11   ar
     9    11    12    1
    10    11    13   ar
    11    13    14   ar
    12    14    15   ar
    13    15    16    1
    14     6     7    1
    15     7     8    1
    16     8    17    1
    17    17    18   ar
    18    18    19   ar
    19    19    20   ar
    20    20    21   ar
    21    21    22    1
    22    21    23   ar
    23     8     4    1
    24    23    17   ar
    25    15     9   ar
    26    22    24    1
@<TRIPOS>MOLECULE
*****
 24 26 0 0 0
SMALL
GASTEIGER

@<TRIPOS>ATOM
      1 C         139.3382  139.7384  167.7935 C.3     1  UNL1        0.0966
      2 C         139.0764  140.0905  166.3591 C.2     1  UNL1        0.2451
      3 O         138.1223  139.2661  165.5466 O.2     1  UNL1       -0.2731
      4 N         139.7686  141.2669  165.7372 N.am    1  UNL1       -0.1782
      5 N         139.6076  141.7378  164.3221 N.2     1  UNL1       -0.1797
      6 C         140.4830  142.9409  164.1315 C.2     1  UNL1        0.0808
      7 C         141.1850  143.2136  165.4287 C.3     1  UNL1        0.0738
      8 C         140.7435  142.1790  166.4211 C.3     1  UNL1        0.1273
      9 C         140.6304  143.7324  162.8658 C.ar    1  UNL1        0.0448
     10 C         139.8373  144.9906  162.6714 C.ar    1  UNL1        0.0331
     11 C         139.9848  145.7820  161.4057 C.ar    1  UNL1        0.1403
     12 F         139.1917  147.0403  161.2113 F       1  UNL1       -0.2042
     13 C         140.9252  145.3151  160.3345 C.ar    1  UNL1        0.0319
     14 C         141.7183  144.0569  160.5289 C.ar    1  UNL1        0.0320
     15 C         141.5708  143.2655  161.7945 C.ar    1  UNL1        0.1414
     16 F         142.3639  142.0072  161.9890 F       1  UNL1       -0.2041
     17 C         141.1973  142.0748  167.8470 C.ar    1  UNL1        0.0011
     18 C         142.5456  141.4996  168.1649 C.ar    1  UNL1       -0.0024
     19 C         142.9994  141.3955  169.5908 C.ar    1  UNL1        0.0028
     20 C         142.1047  141.8665  170.6988 C.ar    1  UNL1        0.0366
     21 C         140.7563  142.4418  170.3809 C.ar    1  UNL1        0.1334
     22 O         139.8617  142.9128  171.4890 O.3     1  UNL1       -0.5055
     23 C         140.3027  142.5459  168.9551 C.ar    1  UNL1        0.0340
     24 H         140.1452  142.8477  172.3797 H       1  UNL1        0.2922
@<TRIPOS>BOND
     1     1     2    1
     2     2     3    2
     3     2     4   am
     4     4     5    1
     5     5     6    2
     6     6     9    1
     7     9    10   ar
     8    10    11   ar
     9    11    12    1
    10    11    13   ar
    11    13    14   ar
    12    14    15   ar
    13    15    16    1
    14     6     7    1
    15     7     8    1
    16     8    17    1
    17    17    18   ar
    18    18    19   ar
    19    19    20   ar
    20    20    21   ar
    21    21    22    1
    22    21    23   ar
    23     8     4    1
    24    23    17   ar
    25    15     9   ar
    26    22    24    1
@<TRIPOS>MOLECULE
*****
 24 26 0 0 0
SMALL
GASTEIGER

@<TRIPOS>ATOM
      1 C         139.3674  139.6923  167.7339 C.3     1  UNL1        0.0966
      2 C         139.1039  140.0633  166.3046 C.2     1  UNL1        0.2451
      3 O         138.1488  139.2498  165.4824 O.2     1  UNL1       -0.2731
      4 N         139.7956  141.2477  165.6974 N.am    1  UNL1       -0.1782
      5 N         139.6330  141.7371  164.2888 N.2     1  UNL1       -0.1797
      6 C         140.5082  142.9426  164.1130 C.2     1  UNL1        0.0808
      7 C         141.2118  143.1981  165.4129 C.3     1  UNL1        0.0738
      8 C         140.7714  142.1506  166.3921 C.3     1  UNL1        0.1273
      9 C         140.6543  143.7506  162.8577 C.ar    1  UNL1        0.0448
     10 C         141.6299  143.3248  161.8009 C.ar    1  UNL1        0.0331
     11 C         141.7759  144.1328  160.5456 C.ar    1  UNL1        0.1403
     12 F         142.7515  143.7070  159.4888 F       1  UNL1       -0.2042
     13 C         140.9462  145.3666  160.3471 C.ar    1  UNL1        0.0319
     14 C         139.9706  145.7924  161.4039 C.ar    1  UNL1        0.0320
     15 C         139.8246  144.9844  162.6592 C.ar    1  UNL1        0.1414
     16 F         138.8490  145.4102  163.7160 F       1  UNL1       -0.2041
     17 C         141.2268  142.0277  167.8160 C.ar    1  UNL1        0.0011
     18 C         142.5797  141.4580  168.1242 C.ar    1  UNL1       -0.0024
     19 C         143.0351  141.3351  169.5481 C.ar    1  UNL1        0.0028
     20 C         142.1375  141.7817  170.6638 C.ar    1  UNL1        0.0366
     21 C         140.7845  142.3514  170.3556 C.ar    1  UNL1        0.1334
     22 O         139.8869  142.7980  171.4713 O.3     1  UNL1       -0.5055
     23 C         140.3292  142.4743  168.9317 C.ar    1  UNL1        0.0340
     24 H         140.1714  142.7212  172.3608 H       1  UNL1        0.2922
@<TRIPOS>BOND
     1     1     2    1
     2     2     3    2
     3     2     4   am
     4     4     5    1
     5     5     6    2
     6     6     9    1
     7     9    10   ar
     8    10    11   ar
     9    11    12    1
    10    11    13   ar
    11    13    14   ar
    12    14    15   ar
    13    15    16    1
    14     6     7    1
    15     7     8    1
    16     8    17    1
    17    17    18   ar
    18    18    19   ar
    19    19    20   ar
    20    20    21   ar
    21    21    22    1
    22    21    23   ar
    23     8     4    1
    24    23    17   ar
    25    15     9   ar
    26    22    24    1
@<TRIPOS>MOLECULE
*****
 24 26 0 0 0
SMALL
GASTEIGER

@<TRIPOS>ATOM
      1 C         139.2142  139.9404  168.2654 C.3     1  UNL1        0.0966
      2 C         139.2219  139.5253  166.8240 C.2     1  UNL1        0.2451
      3 O         138.0093  138.8779  166.2235 O.2     1  UNL1       -0.2731
      4 N         140.4421  139.7575  165.9830 N.am    1  UNL1       -0.1782
      5 N         140.5965  139.3978  164.5350 N.2     1  UNL1       -0.1797
      6 C         141.9720  139.8082  164.0996 C.2     1  UNL1        0.0808
      7 C         142.6676  140.4216  165.2784 C.3     1  UNL1        0.0738
      8 C         141.7222  140.3903  166.4425 C.3     1  UNL1        0.1273
      9 C         142.5502  139.6355  162.7262 C.ar    1  UNL1        0.0448
     10 C         142.6218  138.2704  162.1089 C.ar    1  UNL1        0.0331
     11 C         143.2001  138.0977  160.7356 C.ar    1  UNL1        0.1403
     12 F         143.2717  136.7325  160.1182 F       1  UNL1       -0.2042
     13 C         143.7066  139.2902  159.9798 C.ar    1  UNL1        0.0319
     14 C         143.6350  140.6554  160.5972 C.ar    1  UNL1        0.0320
     15 C         143.0568  140.8280  161.9704 C.ar    1  UNL1        0.1414
     16 F         142.9851  142.1932  162.5879 F       1  UNL1       -0.2041
     17 C         142.0067  140.9019  167.8235 C.ar    1  UNL1        0.0011
     18 C         141.6393  142.3085  168.1927 C.ar    1  UNL1       -0.0024
     19 C         141.9238  142.8202  169.5738 C.ar    1  UNL1        0.0028
     20 C         142.5759  141.9252  170.5855 C.ar    1  UNL1        0.0366
     21 C         142.9434  140.5185  170.2163 C.ar    1  UNL1        0.1334
     22 O         143.5955  139.6235  171.2281 O.3     1  UNL1       -0.5055
     23 C         142.6588  140.0069  168.8353 C.ar    1  UNL1        0.0340
     24 H         143.7733  139.9431  172.0908 H       1  UNL1        0.2922
@<TRIPOS>BOND
     1     1     2    1
     2     2     3    2
     3     2     4   am
     4     4     5    1
     5     5     6    2
     6     6     9    1
     7     9    10   ar
     8    10    11   ar
     9    11    12    1
    10    11    13   ar
    11    13    14   ar
    12    14    15   ar
    13    15    16    1
    14     6     7    1
    15     7     8    1
    16     8    17    1
    17    17    18   ar
    18    18    19   ar
    19    19    20   ar
    20    20    21   ar
    21    21    22    1
    22    21    23   ar
    23     8     4    1
    24    23    17   ar
    25    15     9   ar
    26    22    24    1
@<TRIPOS>MOLECULE
*****
 24 26 0 0 0
SMALL
GASTEIGER

@<TRIPOS>ATOM
      1 C         139.0673  139.7858  168.0422 C.3     1  UNL1        0.0966
      2 C         139.4879  139.7195  166.6039 C.2     1  UNL1        0.2451
      3 O         138.7925  138.7823  165.6615 O.2     1  UNL1       -0.2731
      4 N         140.6038  140.5905  166.1078 N.am    1  UNL1       -0.1782
      5 N         141.1314  140.6338  164.7044 N.2     1  UNL1       -0.1797
      6 C         142.2417  141.6412  164.6573 C.2     1  UNL1        0.0808
      7 C         142.4004  142.2206  166.0318 C.3     1  UNL1        0.0738
      8 C         141.3882  141.5713  166.9283 C.3     1  UNL1        0.1273
      9 C         143.0513  142.0053  163.4481 C.ar    1  UNL1        0.0448
     10 C         142.4141  142.7577  162.3177 C.ar    1  UNL1        0.0331
     11 C         143.2237  143.1218  161.1086 C.ar    1  UNL1        0.1403
     12 F         142.5865  143.8743  159.9781 F       1  UNL1       -0.2042
     13 C         144.6704  142.7333  161.0298 C.ar    1  UNL1        0.0319
     14 C         145.3075  141.9809  162.1602 C.ar    1  UNL1        0.0320
     15 C         144.4980  141.6168  163.3694 C.ar    1  UNL1        0.1414
     16 F         145.1351  140.8643  164.4998 F       1  UNL1       -0.2041
     17 C         141.1942  141.8532  168.3887 C.ar    1  UNL1        0.0011
     18 C         140.2894  142.9676  168.8238 C.ar    1  UNL1       -0.0024
     19 C         140.0955  143.2495  170.2843 C.ar    1  UNL1        0.0028
     20 C         140.8064  142.4169  171.3096 C.ar    1  UNL1        0.0366
     21 C         141.7114  141.3025  170.8745 C.ar    1  UNL1        0.1334
     22 O         142.4223  140.4700  171.8999 O.3     1  UNL1       -0.5055
     23 C         141.9052  141.0207  169.4141 C.ar    1  UNL1        0.0340
     24 H         142.3012  140.6461  172.8122 H       1  UNL1        0.2922
@<TRIPOS>BOND
     1     1     2    1
     2     2     3    2
     3     2     4   am
     4     4     5    1
     5     5     6    2
     6     6     9    1
     7     9    10   ar
     8    10    11   ar
     9    11    12    1
    10    11    13   ar
    11    13    14   ar
    12    14    15   ar
    13    15    16    1
    14     6     7    1
    15     7     8    1
    16     8    17    1
    17    17    18   ar
    18    18    19   ar
    19    19    20   ar
    20    20    21   ar
    21    21    22    1
    22    21    23   ar
    23     8     4    1
    24    23    17   ar
    25    15     9   ar
    26    22    24    1
@<TRIPOS>MOLECULE
*****
 24 26 0 0 0
SMALL
GASTEIGER

@<TRIPOS>ATOM
      1 C         143.3343  142.4054  167.7453 C.3     1  UNL1        0.0966
      2 C         143.0322  142.3554  166.2769 C.2     1  UNL1        0.2451
      3 O         144.0034  142.9344  165.2912 O.2     1  UNL1       -0.2731
      4 N         141.7589  141.7265  165.7941 N.am    1  UNL1       -0.1782
      5 N         141.3230  141.6039  164.3642 N.2     1  UNL1       -0.1797
      6 C         139.9926  140.9113  164.3428 C.2     1  UNL1        0.0808
      7 C         139.6062  140.6059  165.7597 C.3     1  UNL1        0.0738
      8 C         140.6979  141.1097  166.6567 C.3     1  UNL1        0.1273
      9 C         139.1895  140.5820  163.1194 C.ar    1  UNL1        0.0448
     10 C         138.5631  139.2267  162.9758 C.ar    1  UNL1        0.0331
     11 C         137.7600  138.8975  161.7525 C.ar    1  UNL1        0.1403
     12 F         137.1336  137.5421  161.6088 F       1  UNL1       -0.2042
     13 C         137.5834  139.9236  160.6727 C.ar    1  UNL1        0.0319
     14 C         138.2098  141.2789  160.8163 C.ar    1  UNL1        0.0320
     15 C         139.0128  141.6081  162.0396 C.ar    1  UNL1        0.1414
     16 F         139.6393  142.9635  162.1833 F       1  UNL1       -0.2041
     17 C         140.7239  141.0136  168.1534 C.ar    1  UNL1        0.0011
     18 C         141.3463  139.8214  168.8176 C.ar    1  UNL1       -0.0024
     19 C         141.3724  139.7253  170.3143 C.ar    1  UNL1        0.0028
     20 C         140.7761  140.8213  171.1467 C.ar    1  UNL1        0.0366
     21 C         140.1536  142.0136  170.4824 C.ar    1  UNL1        0.1334
     22 O         139.5573  143.1097  171.3149 O.3     1  UNL1       -0.5055
     23 C         140.1276  142.1097  168.9858 C.ar    1  UNL1        0.0340
     24 H         139.5736  143.0497  172.2498 H       1  UNL1        0.2922
@<TRIPOS>BOND
     1     1     2    1
     2     2     3    2
     3     2     4   am
     4     4     5    1
     5     5     6    2
     6     6     9    1
     7     9    10   ar
     8    10    11   ar
     9    11    12    1
    10    11    13   ar
    11    13    14   ar
    12    14    15   ar
    13    15    16    1
    14     6     7    1
    15     7     8    1
    16     8    17    1
    17    17    18   ar
    18    18    19   ar
    19    19    20   ar
    20    20    21   ar
    21    21    22    1
    22    21    23   ar
    23     8     4    1
    24    23    17   ar
    25    15     9   ar
    26    22    24    1
