@<TRIPOS>MOLECULE
*****
 23 25 0 0 0
SMALL
GASTEIGER

@<TRIPOS>ATOM
      1 N         141.3261  141.9545  166.0814 N.pl3   1  UNL1       -0.2759
      2 C         141.6276  142.3413  167.4989 C.ar    1  UNL1        0.0551
      3 C         143.0042  142.1324  168.0567 C.ar    1  UNL1        0.0150
      4 C         143.3057  142.5193  169.4744 C.ar    1  UNL1        0.0044
      5 C         142.2306  143.1149  170.3341 C.ar    1  UNL1        0.0367
      6 C         140.8539  143.3238  169.7763 C.ar    1  UNL1        0.1349
      7 O         139.7787  143.9195  170.6361 O.3     1  UNL1       -0.5055
      8 C         140.5524  142.9370  168.3587 C.ar    1  UNL1        0.0514
      9 H         139.9670  144.1611  171.5216 H       1  UNL1        0.2922
     10 C         139.9230  146.1746  162.0538 C.3     1  UNL1        0.0310
     11 C         140.2738  145.1196  163.0607 C.ar    1  UNL1       -0.0218
     12 C         141.7121  144.8053  163.3476 C.ar    1  UNL1       -0.0030
     13 C         142.0629  143.7503  164.3545 C.ar    1  UNL1        0.0145
     14 C         140.9753  143.0095  165.0745 C.ar    1  UNL1        0.0520
     15 C         139.5370  143.3238  164.7875 C.ar    1  UNL1        0.0145
     16 C         139.1862  144.3788  163.7806 C.ar    1  UNL1       -0.0030
     17 C         141.3753  140.5127  165.6708 C.3     1  UNL1        0.2131
     18 C         140.1624  139.6450  165.8322 C.2     1  UNL1        0.3125
     19 N         139.8405  138.4210  165.0272 N.2     1  UNL1       -0.0634
     20 C         138.5376  137.8685  165.5244 C.3     1  UNL1        0.3130
     21 C         138.0543  138.7511  166.6368 C.3     1  UNL1        0.2575
     22 N         139.0584  139.8491  166.8271 N.pl3   1  UNL1       -0.2175
     23 H         139.0027  140.5760  167.4887 H       1  UNL1        0.2921
@<TRIPOS>BOND
     1    10    11    1
     2    11    12   ar
     3    12    13   ar
     4    13    14   ar
     5    14     1    1
     6     1    17    1
     7    17    18    1
     8    18    19    2
     9    19    20    1
    10    20    21    1
    11    21    22    1
    12     1     2    1
    13     2     3   ar
    14     3     4   ar
    15     4     5   ar
    16     5     6   ar
    17     6     7    1
    18     6     8   ar
    19    14    15   ar
    20    15    16   ar
    21    16    11   ar
    22    22    18    1
    23     8     2   ar
    24    22    23    1
    25     7     9    1
@<TRIPOS>MOLECULE
*****
 23 25 0 0 0
SMALL
GASTEIGER

@<TRIPOS>ATOM
      1 N         141.3471  142.0099  166.0910 N.pl3   1  UNL1       -0.2759
      2 C         141.5887  142.4014  167.5186 C.ar    1  UNL1        0.0551
      3 C         140.4811  143.0090  168.3274 C.ar    1  UNL1        0.0150
      4 C         140.7226  143.4006  169.7551 C.ar    1  UNL1        0.0044
      5 C         142.0717  143.1846  170.3741 C.ar    1  UNL1        0.0367
      6 C         143.1794  142.5770  169.5653 C.ar    1  UNL1        0.1349
      7 O         144.5285  142.3610  170.1844 O.3     1  UNL1       -0.5055
      8 C         142.9378  142.1854  168.1377 C.ar    1  UNL1        0.0514
      9 H         144.6794  142.6056  171.0762 H       1  UNL1        0.2922
     10 C         139.9175  146.1924  162.0336 C.3     1  UNL1        0.0310
     11 C         140.2749  145.1468  163.0480 C.ar    1  UNL1       -0.0218
     12 C         141.7152  144.8471  163.3406 C.ar    1  UNL1       -0.0030
     13 C         142.0726  143.8015  164.3550 C.ar    1  UNL1        0.0145
     14 C         140.9897  143.0555  165.0766 C.ar    1  UNL1        0.0520
     15 C         139.5494  143.3552  164.7840 C.ar    1  UNL1        0.0145
     16 C         139.1920  144.4008  163.7697 C.ar    1  UNL1       -0.0030
     17 C         141.4631  140.5726  165.6776 C.3     1  UNL1        0.2131
     18 C         140.2668  139.6710  165.7557 C.2     1  UNL1        0.3125
     19 N         139.0446  139.8983  166.5949 N.2     1  UNL1       -0.0634
     20 C         138.1052  138.7515  166.3661 C.3     1  UNL1        0.3130
     21 C         138.7469  137.8153  165.3854 C.3     1  UNL1        0.2575
     22 N         140.0829  138.3835  165.0081 N.pl3   1  UNL1       -0.2175
     23 H         140.7260  137.9820  164.3801 H       1  UNL1        0.2921
@<TRIPOS>BOND
     1    10    11    1
     2    11    12   ar
     3    12    13   ar
     4    13    14   ar
     5    14     1    1
     6     1    17    1
     7    17    18    1
     8    18    19    2
     9    19    20    1
    10    20    21    1
    11    21    22    1
    12     1     2    1
    13     2     3   ar
    14     3     4   ar
    15     4     5   ar
    16     5     6   ar
    17     6     7    1
    18     6     8   ar
    19    14    15   ar
    20    15    16   ar
    21    16    11   ar
    22    22    18    1
    23     8     2   ar
    24    22    23    1
    25     7     9    1
@<TRIPOS>MOLECULE
*****
 23 25 0 0 0
SMALL
GASTEIGER

@<TRIPOS>ATOM
      1 N         141.0564  139.7679  166.4972 N.pl3   1  UNL1       -0.2759
      2 C         140.9798  139.9283  167.9866 C.ar    1  UNL1        0.0551
      3 C         139.6757  140.2850  168.6364 C.ar    1  UNL1        0.0150
      4 C         139.5991  140.4454  170.1259 C.ar    1  UNL1        0.0044
      5 C         140.8265  140.2489  170.9655 C.ar    1  UNL1        0.0367
      6 C         142.1305  139.8921  170.3157 C.ar    1  UNL1        0.1349
      7 O         143.3579  139.6957  171.1554 O.3     1  UNL1       -0.5055
      8 C         142.2072  139.7318  168.8263 C.ar    1  UNL1        0.0514
      9 H         143.3100  139.7959  172.0858 H       1  UNL1        0.2922
     10 C         145.9149  141.6521  163.5231 C.3     1  UNL1        0.0310
     11 C         144.7003  141.1811  164.2666 C.ar    1  UNL1       -0.0218
     12 C         144.4290  139.7124  164.4061 C.ar    1  UNL1       -0.0030
     13 C         143.2144  139.2414  165.1496 C.ar    1  UNL1        0.0145
     14 C         142.2711  140.2390  165.7537 C.ar    1  UNL1        0.0520
     15 C         142.5424  141.7076  165.6142 C.ar    1  UNL1        0.0145
     16 C         143.7570  142.1786  164.8707 C.ar    1  UNL1       -0.0030
     17 C         139.9185  139.1366  165.7513 C.3     1  UNL1        0.2131
     18 C         139.0533  139.9725  164.8554 C.2     1  UNL1        0.3125
     19 N         138.6591  141.4003  165.0921 N.2     1  UNL1       -0.0634
     20 C         137.7925  141.8377  163.9485 C.3     1  UNL1        0.3130
     21 C         137.6511  140.6801  163.0050 C.3     1  UNL1        0.2575
     22 N         138.4303  139.5274  163.5655 N.pl3   1  UNL1       -0.2175
     23 H         138.5175  138.6353  163.1582 H       1  UNL1        0.2921
@<TRIPOS>BOND
     1    10    11    1
     2    11    12   ar
     3    12    13   ar
     4    13    14   ar
     5    14     1    1
     6     1    17    1
     7    17    18    1
     8    18    19    2
     9    19    20    1
    10    20    21    1
    11    21    22    1
    12     1     2    1
    13     2     3   ar
    14     3     4   ar
    15     4     5   ar
    16     5     6   ar
    17     6     7    1
    18     6     8   ar
    19    14    15   ar
    20    15    16   ar
    21    16    11   ar
    22    22    18    1
    23     8     2   ar
    24    22    23    1
    25     7     9    1
@<TRIPOS>MOLECULE
*****
 23 25 0 0 0
SMALL
GASTEIGER

@<TRIPOS>ATOM
      1 N         140.4718  141.3105  166.4130 N.pl3   1  UNL1       -0.2759
      2 C         140.3602  141.5634  167.8873 C.ar    1  UNL1        0.0551
      3 C         140.4856  142.9598  168.4204 C.ar    1  UNL1        0.0150
      4 C         140.3740  143.2126  169.8948 C.ar    1  UNL1        0.0044
      5 C         140.1370  142.0690  170.8360 C.ar    1  UNL1        0.0367
      6 C         140.0115  140.6725  170.3029 C.ar    1  UNL1        0.1349
      7 O         139.7744  139.5289  171.2442 O.3     1  UNL1       -0.5055
      8 C         140.1231  140.4197  168.8286 C.ar    1  UNL1        0.0514
      9 H         139.7047  139.6868  172.1651 H       1  UNL1        0.2922
     10 C         145.8279  141.5705  163.7216 C.3     1  UNL1        0.0310
     11 C         144.4889  141.5055  164.3944 C.ar    1  UNL1       -0.0218
     12 C         143.7118  142.7645  164.6415 C.ar    1  UNL1       -0.0030
     13 C         142.3727  142.6995  165.3144 C.ar    1  UNL1        0.0145
     14 C         141.8108  141.3755  165.7402 C.ar    1  UNL1        0.0520
     15 C         142.5879  140.1166  165.4931 C.ar    1  UNL1        0.0145
     16 C         143.9269  140.1816  164.8202 C.ar    1  UNL1       -0.0030
     17 C         139.2443  140.9927  165.6116 C.3     1  UNL1        0.2131
     18 C         138.7006  141.9992  164.6414 C.2     1  UNL1        0.3125
     19 N         138.5969  143.4780  164.8705 N.2     1  UNL1       -0.0634
     20 C         137.9973  144.0964  163.6424 C.3     1  UNL1        0.3130
     21 C         137.7305  142.9999  162.6543 C.3     1  UNL1        0.2575
     22 N         138.1652  141.7037  163.2717 N.pl3   1  UNL1       -0.2175
     23 H         138.1089  140.8150  162.8517 H       1  UNL1        0.2921
@<TRIPOS>BOND
     1    10    11    1
     2    11    12   ar
     3    12    13   ar
     4    13    14   ar
     5    14     1    1
     6     1    17    1
     7    17    18    1
     8    18    19    2
     9    19    20    1
    10    20    21    1
    11    21    22    1
    12     1     2    1
    13     2     3   ar
    14     3     4   ar
    15     4     5   ar
    16     5     6   ar
    17     6     7    1
    18     6     8   ar
    19    14    15   ar
    20    15    16   ar
    21    16    11   ar
    22    22    18    1
    23     8     2   ar
    24    22    23    1
    25     7     9    1
@<TRIPOS>MOLECULE
*****
 23 25 0 0 0
SMALL
GASTEIGER

@<TRIPOS>ATOM
      1 N         141.2763  142.4509  164.9247 N.pl3   1  UNL1       -0.2759
      2 C         142.6736  142.0683  164.5362 C.ar    1  UNL1        0.0551
      3 C         143.8081  143.0172  164.7864 C.ar    1  UNL1        0.0150
      4 C         145.2055  142.6346  164.3978 C.ar    1  UNL1        0.0044
      5 C         145.4684  141.3031  163.7590 C.ar    1  UNL1        0.0367
      6 C         144.3339  140.3542  163.5088 C.ar    1  UNL1        0.1349
      7 O         144.5968  139.0227  162.8700 O.3     1  UNL1       -0.5055
      8 C         142.9366  140.7368  163.8974 C.ar    1  UNL1        0.0514
      9 H         145.4697  138.7837  162.6273 H       1  UNL1        0.2922
     10 C         137.5092  138.2936  167.0521 C.3     1  UNL1        0.0310
     11 C         138.4510  139.3329  166.5202 C.ar    1  UNL1       -0.0218
     12 C         138.2734  139.8643  165.1288 C.ar    1  UNL1       -0.0030
     13 C         139.2152  140.9036  164.5970 C.ar    1  UNL1        0.0145
     14 C         140.3345  141.4116  165.4565 C.ar    1  UNL1        0.0520
     15 C         140.5121  140.8803  166.8480 C.ar    1  UNL1        0.0145
     16 C         139.5703  139.8409  167.3798 C.ar    1  UNL1       -0.0030
     17 C         140.8207  143.8728  164.7814 C.3     1  UNL1        0.2131
     18 C         140.4950  144.4229  163.4245 C.2     1  UNL1        0.3125
     19 N         140.3259  143.6237  162.1664 N.2     1  UNL1       -0.0634
     20 C         140.0077  144.5757  161.0517 C.3     1  UNL1        0.3130
     21 C         139.9800  145.9632  161.6209 C.3     1  UNL1        0.2575
     22 N         140.2813  145.8689  163.0873 N.pl3   1  UNL1       -0.2175
     23 H         140.3301  146.6235  163.7178 H       1  UNL1        0.2921
@<TRIPOS>BOND
     1    10    11    1
     2    11    12   ar
     3    12    13   ar
     4    13    14   ar
     5    14     1    1
     6     1    17    1
     7    17    18    1
     8    18    19    2
     9    19    20    1
    10    20    21    1
    11    21    22    1
    12     1     2    1
    13     2     3   ar
    14     3     4   ar
    15     4     5   ar
    16     5     6   ar
    17     6     7    1
    18     6     8   ar
    19    14    15   ar
    20    15    16   ar
    21    16    11   ar
    22    22    18    1
    23     8     2   ar
    24    22    23    1
    25     7     9    1
@<TRIPOS>MOLECULE
*****
 23 25 0 0 0
SMALL
GASTEIGER

@<TRIPOS>ATOM
      1 N         142.0111  139.2360  165.9237 N.pl3   1  UNL1       -0.2759
      2 C         141.6404  139.5426  167.3444 C.ar    1  UNL1        0.0551
      3 C         140.2413  139.9672  167.6796 C.ar    1  UNL1        0.0150
      4 C         139.8707  140.2738  169.1004 C.ar    1  UNL1        0.0044
      5 C         140.8991  140.1559  170.1859 C.ar    1  UNL1        0.0367
      6 C         142.2981  139.7314  169.8508 C.ar    1  UNL1        0.1349
      7 O         143.3265  139.6135  170.9364 O.3     1  UNL1       -0.5055
      8 C         142.6688  139.4247  168.4300 C.ar    1  UNL1        0.0514
      9 H         143.0950  139.8050  171.8239 H       1  UNL1        0.2922
     10 C         137.7234  138.5977  161.7753 C.3     1  UNL1        0.0310
     11 C         138.7953  138.7572  162.8124 C.ar    1  UNL1       -0.0218
     12 C         139.1680  137.5994  163.6902 C.ar    1  UNL1       -0.0030
     13 C         140.2399  137.7590  164.7272 C.ar    1  UNL1        0.0145
     14 C         140.9392  139.0764  164.8866 C.ar    1  UNL1        0.0520
     15 C         140.5665  140.2342  164.0088 C.ar    1  UNL1        0.0145
     16 C         139.4946  140.0746  162.9717 C.ar    1  UNL1       -0.0030
     17 C         143.4537  139.0889  165.5400 C.3     1  UNL1        0.2131
     18 C         144.1780  140.2319  164.8929 C.2     1  UNL1        0.3125
     19 N         143.9295  141.6895  165.1457 N.2     1  UNL1       -0.0634
     20 C         144.8759  142.4765  164.2884 C.3     1  UNL1        0.3130
     21 C         145.7093  141.5054  163.5058 C.3     1  UNL1        0.2575
     22 N         145.2780  140.1182  163.8794 N.pl3   1  UNL1       -0.2175
     23 H         145.6513  139.2802  163.5221 H       1  UNL1        0.2921
@<TRIPOS>BOND
     1    10    11    1
     2    11    12   ar
     3    12    13   ar
     4    13    14   ar
     5    14     1    1
     6     1    17    1
     7    17    18    1
     8    18    19    2
     9    19    20    1
    10    20    21    1
    11    21    22    1
    12     1     2    1
    13     2     3   ar
    14     3     4   ar
    15     4     5   ar
    16     5     6   ar
    17     6     7    1
    18     6     8   ar
    19    14    15   ar
    20    15    16   ar
    21    16    11   ar
    22    22    18    1
    23     8     2   ar
    24    22    23    1
    25     7     9    1
@<TRIPOS>MOLECULE
*****
 23 25 0 0 0
SMALL
GASTEIGER

@<TRIPOS>ATOM
      1 N         141.3031  141.9883  166.0416 N.pl3   1  UNL1       -0.2759
      2 C         141.6076  142.3615  167.4622 C.ar    1  UNL1        0.0551
      3 C         142.9770  142.1190  168.0243 C.ar    1  UNL1        0.0150
      4 C         143.2814  142.4923  169.4450 C.ar    1  UNL1        0.0044
      5 C         142.2164  143.1079  170.3033 C.ar    1  UNL1        0.0367
      6 C         140.8471  143.3504  169.7412 C.ar    1  UNL1        0.1349
      7 O         139.7821  143.9660  170.5996 O.3     1  UNL1       -0.5055
      8 C         140.5426  142.9771  168.3206 C.ar    1  UNL1        0.0514
      9 H         139.9723  144.1992  171.4870 H       1  UNL1        0.2922
     10 C         139.8957  146.2472  162.0565 C.3     1  UNL1        0.0310
     11 C         140.2476  145.1824  163.0528 C.ar    1  UNL1       -0.0218
     12 C         141.6862  144.8623  163.3318 C.ar    1  UNL1       -0.0030
     13 C         142.0380  143.7976  164.3281 C.ar    1  UNL1        0.0145
     14 C         140.9513  143.0530  165.0454 C.ar    1  UNL1        0.0520
     15 C         139.5127  143.3731  164.7663 C.ar    1  UNL1        0.0145
     16 C         139.1608  144.4378  163.7701 C.ar    1  UNL1       -0.0030
     17 C         141.3505  140.5503  165.6174 C.3     1  UNL1        0.2131
     18 C         142.4784  140.0582  164.7597 C.2     1  UNL1        0.3125
     19 N         142.4010  138.9501  163.7517 N.2     1  UNL1       -0.0634
     20 C         143.7566  138.7948  163.1284 C.3     1  UNL1        0.3130
     21 C         144.6718  139.8070  163.7512 C.3     1  UNL1        0.2575
     22 N         143.8819  140.5879  164.7594 N.pl3   1  UNL1       -0.2175
     23 H         144.2244  141.3195  165.3221 H       1  UNL1        0.2921
@<TRIPOS>BOND
     1    10    11    1
     2    11    12   ar
     3    12    13   ar
     4    13    14   ar
     5    14     1    1
     6     1    17    1
     7    17    18    1
     8    18    19    2
     9    19    20    1
    10    20    21    1
    11    21    22    1
    12     1     2    1
    13     2     3   ar
    14     3     4   ar
    15     4     5   ar
    16     5     6   ar
    17     6     7    1
    18     6     8   ar
    19    14    15   ar
    20    15    16   ar
    21    16    11   ar
    22    22    18    1
    23     8     2   ar
    24    22    23    1
    25     7     9    1
@<TRIPOS>MOLECULE
*****
 23 25 0 0 0
SMALL
GASTEIGER

@<TRIPOS>ATOM
      1 N         142.1468  140.1627  166.7164 N.pl3   1  UNL1       -0.2759
      2 C         141.4413  140.2236  168.0387 C.ar    1  UNL1        0.0551
      3 C         139.9475  140.1011  168.0981 C.ar    1  UNL1        0.0150
      4 C         139.2420  140.1620  169.4205 C.ar    1  UNL1        0.0044
      5 C         140.0303  140.3454  170.6834 C.ar    1  UNL1        0.0367
      6 C         141.5241  140.4680  170.6239 C.ar    1  UNL1        0.1349
      7 O         142.3124  140.6514  171.8869 O.3     1  UNL1       -0.5055
      8 C         142.2296  140.4071  169.3016 C.ar    1  UNL1        0.0514
      9 H         141.8717  140.6895  172.7129 H       1  UNL1        0.2922
     10 C         143.0164  145.1820  163.5461 C.3     1  UNL1        0.0310
     11 C         142.7990  143.9272  164.3386 C.ar    1  UNL1       -0.0218
     12 C         143.9676  143.0642  164.7123 C.ar    1  UNL1       -0.0030
     13 C         143.7502  141.8094  165.5049 C.ar    1  UNL1        0.0145
     14 C         142.3642  141.4176  165.9238 C.ar    1  UNL1        0.0520
     15 C         141.1956  142.2805  165.5501 C.ar    1  UNL1        0.0145
     16 C         141.4130  143.5353  164.7575 C.ar    1  UNL1       -0.0030
     17 C         142.6349  138.8470  166.1866 C.3     1  UNL1        0.2131
     18 C         142.1468  138.3450  164.8601 C.2     1  UNL1        0.3125
     19 N         140.8501  137.6340  164.6092 N.2     1  UNL1       -0.0634
     20 C         140.7717  137.3154  163.1455 C.3     1  UNL1        0.3130
     21 C         142.0199  137.8296  162.4917 C.3     1  UNL1        0.2575
     22 N         142.8699  138.4660  163.5513 N.pl3   1  UNL1       -0.2175
     23 H         143.7480  138.8888  163.4123 H       1  UNL1        0.2921
@<TRIPOS>BOND
     1    10    11    1
     2    11    12   ar
     3    12    13   ar
     4    13    14   ar
     5    14     1    1
     6     1    17    1
     7    17    18    1
     8    18    19    2
     9    19    20    1
    10    20    21    1
    11    21    22    1
    12     1     2    1
    13     2     3   ar
    14     3     4   ar
    15     4     5   ar
    16     5     6   ar
    17     6     7    1
    18     6     8   ar
    19    14    15   ar
    20    15    16   ar
    21    16    11   ar
    22    22    18    1
    23     8     2   ar
    24    22    23    1
    25     7     9    1
@<TRIPOS>MOLECULE
*****
 23 25 0 0 0
SMALL
GASTEIGER

@<TRIPOS>ATOM
      1 N         140.6931  140.0716  166.4669 N.pl3   1  UNL1       -0.2759
      2 C         140.7810  140.1430  167.9626 C.ar    1  UNL1        0.0551
      3 C         139.5340  140.3055  168.7803 C.ar    1  UNL1        0.0150
      4 C         139.6219  140.3769  170.2760 C.ar    1  UNL1        0.0044
      5 C         140.9568  140.2857  170.9540 C.ar    1  UNL1        0.0367
      6 C         142.2038  140.1232  170.1364 C.ar    1  UNL1        0.1349
      7 O         143.5387  140.0320  170.8145 O.3     1  UNL1       -0.5055
      8 C         142.1159  140.0518  168.6407 C.ar    1  UNL1        0.0514
      9 H         143.5936  140.0766  171.7488 H       1  UNL1        0.2922
     10 C         137.6328  144.2506  163.4387 C.3     1  UNL1        0.0310
     11 C         138.3978  143.2059  164.1957 C.ar    1  UNL1       -0.0218
     12 C         139.5913  143.5973  165.0158 C.ar    1  UNL1       -0.0030
     13 C         140.3564  142.5525  165.7728 C.ar    1  UNL1        0.0145
     14 C         139.9280  141.1164  165.7098 C.ar    1  UNL1        0.0520
     15 C         138.7346  140.7250  164.8898 C.ar    1  UNL1        0.0145
     16 C         137.9695  141.7698  164.1328 C.ar    1  UNL1       -0.0030
     17 C         141.3703  138.9555  165.7283 C.3     1  UNL1        0.2131
     18 C         142.5874  139.2358  164.8975 C.2     1  UNL1        0.3125
     19 N         143.6509  140.2477  165.2051 N.2     1  UNL1       -0.0634
     20 C         144.6755  140.1907  164.1110 C.3     1  UNL1        0.3130
     21 C         144.2451  139.1435  163.1271 C.3     1  UNL1        0.2575
     22 N         142.9545  138.5532  163.6132 N.pl3   1  UNL1       -0.2175
     23 H         142.4390  137.8427  163.1675 H       1  UNL1        0.2921
@<TRIPOS>BOND
     1    10    11    1
     2    11    12   ar
     3    12    13   ar
     4    13    14   ar
     5    14     1    1
     6     1    17    1
     7    17    18    1
     8    18    19    2
     9    19    20    1
    10    20    21    1
    11    21    22    1
    12     1     2    1
    13     2     3   ar
    14     3     4   ar
    15     4     5   ar
    16     5     6   ar
    17     6     7    1
    18     6     8   ar
    19    14    15   ar
    20    15    16   ar
    21    16    11   ar
    22    22    18    1
    23     8     2   ar
    24    22    23    1
    25     7     9    1
