@<TRIPOS>MOLECULE
*****
 32 35 0 0 0
SMALL
GASTEIGER

@<TRIPOS>ATOM
      1 N         140.4020  144.7355  162.7138 N.3     1  UNL1       -0.2673
      2 C         141.2576  144.3835  161.5331 C.3     1  UNL1        0.1035
      3 C         142.5830  143.7127  161.7409 C.3     1  UNL1        0.1470
      4 C         143.9086  143.0418  161.9485 C.3     1  UNL1        0.1035
      5 N         144.3784  142.7231  163.3369 N.3     1  UNL1       -0.2682
      6 C         143.5228  143.0752  164.5176 C.3     1  UNL1        0.1035
      7 C         142.1974  143.7460  164.3099 C.3     1  UNL1        0.1470
      8 C         140.8719  144.4168  164.1022 C.3     1  UNL1        0.1035
      9 O         143.0529  143.3939  163.1292 O.3     1  UNL1       -0.3530
     10 C         139.0765  145.4063  162.5061 C.3     1  UNL1        0.0913
     11 C         137.8151  144.7299  162.9547 C.3     1  UNL1        0.1087
     12 N         137.3667  143.4621  162.2900 N.3     1  UNL1       -0.1780
     13 H         136.3501  143.5096  162.2208 H       1  UNL1        0.1488
     14 O         137.6873  141.5017  161.5460 O.2     1  UNL1       -0.1530
     15 S         137.6973  142.1349  162.9057 S.O2    1  UNL1        0.0603
     16 O         137.7074  142.7682  164.2654 O.2     1  UNL1       -0.1530
     17 C         138.0280  140.8077  163.5213 C.ar    1  UNL1        0.1221
     18 C         138.1532  140.6822  165.0108 C.ar    1  UNL1        0.0222
     19 C         138.4839  139.3549  165.6265 C.ar    1  UNL1        0.0310
     20 C         138.6893  138.1531  164.7527 C.ar    1  UNL1        0.1402
     21 F         139.0200  136.8259  165.3684 F       1  UNL1       -0.2042
     22 C         138.5640  138.2786  163.2632 C.ar    1  UNL1        0.0310
     23 C         138.2334  139.6059  162.6475 C.ar    1  UNL1        0.0222
     24 C         145.7039  142.0523  163.5446 C.3     1  UNL1        0.0769
     25 C         145.7590  140.6369  164.0384 C.3     1  UNL1        0.0437
     26 C         144.5706  139.7372  163.8705 C.ar    1  UNL1       -0.0186
     27 C         144.2683  139.1364  162.5298 C.ar    1  UNL1       -0.0041
     28 C         143.0799  138.2367  162.3618 C.ar    1  UNL1        0.0020
     29 C         142.1938  137.9378  163.5347 C.ar    1  UNL1        0.0296
     30 C         142.4962  138.5386  164.8754 C.ar    1  UNL1        0.1398
     31 F         141.6101  138.2397  166.0483 F       1  UNL1       -0.2042
     32 C         143.6846  139.4383  165.0433 C.ar    1  UNL1        0.0254
@<TRIPOS>BOND
     1    14    15    2
     2    15    16    2
     3    15    12    1
     4    12    11    1
     5    11    10    1
     6    10     1    1
     7     1     2    1
     8     2     3    1
     9     3     4    1
    10     4     5    1
    11     5    24    1
    12    24    25    1
    13    25    26    1
    14    26    27   ar
    15    27    28   ar
    16    28    29   ar
    17    29    30   ar
    18    30    31    1
    19    30    32   ar
    20     5     6    1
    21     6     7    1
    22     7     8    1
    23     7     9    1
    24    15    17    1
    25    17    18   ar
    26    18    19   ar
    27    19    20   ar
    28    20    21    1
    29    20    22   ar
    30    22    23   ar
    31     8     1    1
    32    23    17   ar
    33     9     3    1
    34    32    26   ar
    35    12    13    1
@<TRIPOS>MOLECULE
*****
 32 35 0 0 0
SMALL
GASTEIGER

@<TRIPOS>ATOM
      1 N         138.6193  143.6678  163.3301 N.3     1  UNL1       -0.2673
      2 C         139.1366  143.3604  164.7040 C.3     1  UNL1        0.1035
      3 C         139.1598  141.9440  165.1972 C.3     1  UNL1        0.1470
      4 C         139.1830  140.5276  165.6904 C.3     1  UNL1        0.1035
      5 N         138.6887  139.4186  164.8095 N.3     1  UNL1       -0.2682
      6 C         138.1714  139.7260  163.4355 C.3     1  UNL1        0.1035
      7 C         138.1482  141.1424  162.9424 C.3     1  UNL1        0.1470
      8 C         138.1251  142.5588  162.4493 C.3     1  UNL1        0.1035
      9 O         138.6656  140.8350  164.3163 O.3     1  UNL1       -0.3530
     10 C         138.5961  145.0843  162.8369 C.3     1  UNL1        0.0913
     11 C         139.6423  145.5601  161.8730 C.3     1  UNL1        0.1087
     12 N         140.9702  146.0368  162.3825 N.3     1  UNL1       -0.1780
     13 H         141.3476  146.6678  161.6755 H       1  UNL1        0.1488
     14 O         141.9234  145.3749  164.1582 O.2     1  UNL1       -0.1530
     15 S         142.0511  145.0465  162.7002 S.O2    1  UNL1        0.0603
     16 O         142.1788  144.7181  161.2422 O.2     1  UNL1       -0.1530
     17 C         143.1320  144.0562  163.0179 C.ar    1  UNL1        0.1221
     18 C         143.5571  143.8404  164.4401 C.ar    1  UNL1        0.0222
     19 C         144.6380  142.8500  164.7578 C.ar    1  UNL1        0.0310
     20 C         145.2938  142.0755  163.6533 C.ar    1  UNL1        0.1402
     21 F         146.3746  141.0852  163.9709 F       1  UNL1       -0.2042
     22 C         144.8687  142.2913  162.2310 C.ar    1  UNL1        0.0310
     23 C         143.7878  143.2816  161.9133 C.ar    1  UNL1        0.0222
     24 C         138.7119  138.0022  165.3026 C.3     1  UNL1        0.0769
     25 C         139.8018  137.0715  164.8597 C.3     1  UNL1        0.0437
     26 C         141.0490  137.6212  164.2336 C.ar    1  UNL1       -0.0186
     27 C         141.2286  137.5651  162.7455 C.ar    1  UNL1       -0.0041
     28 C         142.4759  138.1149  162.1193 C.ar    1  UNL1        0.0020
     29 C         143.5436  138.7207  162.9812 C.ar    1  UNL1        0.0296
     30 C         143.3639  138.7768  164.4694 C.ar    1  UNL1        0.1398
     31 F         144.4316  139.3827  165.3314 F       1  UNL1       -0.2042
     32 C         142.1167  138.2271  165.0956 C.ar    1  UNL1        0.0254
@<TRIPOS>BOND
     1    14    15    2
     2    15    16    2
     3    15    12    1
     4    12    11    1
     5    11    10    1
     6    10     1    1
     7     1     2    1
     8     2     3    1
     9     3     4    1
    10     4     5    1
    11     5    24    1
    12    24    25    1
    13    25    26    1
    14    26    27   ar
    15    27    28   ar
    16    28    29   ar
    17    29    30   ar
    18    30    31    1
    19    30    32   ar
    20     5     6    1
    21     6     7    1
    22     7     8    1
    23     7     9    1
    24    15    17    1
    25    17    18   ar
    26    18    19   ar
    27    19    20   ar
    28    20    21    1
    29    20    22   ar
    30    22    23   ar
    31     8     1    1
    32    23    17   ar
    33     9     3    1
    34    32    26   ar
    35    12    13    1
@<TRIPOS>MOLECULE
*****
 32 35 0 0 0
SMALL
GASTEIGER

@<TRIPOS>ATOM
      1 N         141.2116  145.1117  162.5659 N.3     1  UNL1       -0.2673
      2 C         141.9060  144.4263  161.4266 C.3     1  UNL1        0.1035
      3 C         143.0226  143.4626  161.6996 C.3     1  UNL1        0.1470
      4 C         144.1392  142.4989  161.9725 C.3     1  UNL1        0.1035
      5 N         144.5615  142.2208  163.3847 N.3     1  UNL1       -0.2682
      6 C         143.8671  142.9063  164.5240 C.3     1  UNL1        0.1035
      7 C         142.7504  143.8699  164.2511 C.3     1  UNL1        0.1470
      8 C         141.6338  144.8336  163.9781 C.3     1  UNL1        0.1035
      9 O         143.4448  143.1845  163.1118 O.3     1  UNL1       -0.3530
     10 C         140.0949  146.0754  162.2930 C.3     1  UNL1        0.0913
     11 C         138.8302  145.5941  161.6459 C.3     1  UNL1        0.1087
     12 N         137.7611  144.9486  162.4769 N.3     1  UNL1       -0.1780
     13 H         137.6644  145.5121  163.3216 H       1  UNL1        0.1488
     14 O         137.9285  143.9729  164.3530 O.2     1  UNL1       -0.1530
     15 S         137.9145  143.5244  162.9217 S.O2    1  UNL1        0.0603
     16 O         137.9004  143.0758  161.4905 O.2     1  UNL1       -0.1530
     17 C         138.0678  142.1001  163.3665 C.ar    1  UNL1        0.1221
     18 C         137.9298  140.9850  162.3728 C.ar    1  UNL1        0.0222
     19 C         138.0831  139.5607  162.8177 C.ar    1  UNL1        0.0310
     20 C         138.3746  139.2515  164.2562 C.ar    1  UNL1        0.1402
     21 F         138.5279  137.8273  164.7011 F       1  UNL1       -0.2042
     22 C         138.5127  140.3666  165.2500 C.ar    1  UNL1        0.0310
     23 C         138.3593  141.7909  164.8051 C.ar    1  UNL1        0.0222
     24 C         145.6781  141.2571  163.6577 C.3     1  UNL1        0.0769
     25 C         145.3955  139.9601  164.3563 C.3     1  UNL1        0.0437
     26 C         144.1354  139.2046  164.0543 C.ar    1  UNL1       -0.0186
     27 C         143.1658  138.8926  165.1554 C.ar    1  UNL1       -0.0041
     28 C         141.9057  138.1370  164.8534 C.ar    1  UNL1        0.0020
     29 C         141.6152  137.6934  163.4503 C.ar    1  UNL1        0.0296
     30 C         142.5849  138.0054  162.3491 C.ar    1  UNL1        0.1398
     31 F         142.2944  137.5618  160.9460 F       1  UNL1       -0.2042
     32 C         143.8449  138.7610  162.6511 C.ar    1  UNL1        0.0254
@<TRIPOS>BOND
     1    14    15    2
     2    15    16    2
     3    15    12    1
     4    12    11    1
     5    11    10    1
     6    10     1    1
     7     1     2    1
     8     2     3    1
     9     3     4    1
    10     4     5    1
    11     5    24    1
    12    24    25    1
    13    25    26    1
    14    26    27   ar
    15    27    28   ar
    16    28    29   ar
    17    29    30   ar
    18    30    31    1
    19    30    32   ar
    20     5     6    1
    21     6     7    1
    22     7     8    1
    23     7     9    1
    24    15    17    1
    25    17    18   ar
    26    18    19   ar
    27    19    20   ar
    28    20    21    1
    29    20    22   ar
    30    22    23   ar
    31     8     1    1
    32    23    17   ar
    33     9     3    1
    34    32    26   ar
    35    12    13    1
@<TRIPOS>MOLECULE
*****
 32 35 0 0 0
SMALL
GASTEIGER

@<TRIPOS>ATOM
      1 N         139.7406  144.2349  163.4622 N.3     1  UNL1       -0.2673
      2 C         140.4750  143.7819  164.6891 C.3     1  UNL1        0.1035
      3 C         140.0622  142.5202  165.3872 C.3     1  UNL1        0.1470
      4 C         139.6493  141.2584  166.0855 C.3     1  UNL1        0.1035
      5 N         138.5020  140.4496  165.5567 N.3     1  UNL1       -0.2682
      6 C         137.7676  140.9026  164.3298 C.3     1  UNL1        0.1035
      7 C         138.1804  142.1643  163.6316 C.3     1  UNL1        0.1470
      8 C         138.5933  143.4261  162.9334 C.3     1  UNL1        0.1035
      9 O         138.9149  141.7114  164.8585 O.3     1  UNL1       -0.3530
     10 C         140.1534  145.4967  162.7639 C.3     1  UNL1        0.0913
     11 C         140.6793  145.4395  161.3603 C.3     1  UNL1        0.1087
     12 N         142.1332  145.1637  161.1148 N.3     1  UNL1       -0.1780
     13 H         142.2487  145.0695  160.1057 H       1  UNL1        0.1488
     14 O         141.8493  143.0653  160.9881 O.2     1  UNL1       -0.1530
     15 S         142.7851  143.9656  161.7389 S.O2    1  UNL1        0.0603
     16 O         143.7209  144.8658  162.4897 O.2     1  UNL1       -0.1530
     17 C         143.4370  142.7675  162.3630 C.ar    1  UNL1        0.1221
     18 C         143.9529  142.8418  163.7695 C.ar    1  UNL1        0.0222
     19 C         144.6048  141.6436  164.3936 C.ar    1  UNL1        0.0310
     20 C         144.7407  140.3712  163.6112 C.ar    1  UNL1        0.1402
     21 F         145.3926  139.1730  164.2353 F       1  UNL1       -0.2042
     22 C         144.2248  140.2968  162.2047 C.ar    1  UNL1        0.0310
     23 C         143.5730  141.4949  161.5806 C.ar    1  UNL1        0.0222
     24 C         138.0892  139.1878  166.2549 C.3     1  UNL1        0.0769
     25 C         138.5236  137.8565  165.7172 C.3     1  UNL1        0.0437
     26 C         139.4698  137.7895  164.5553 C.ar    1  UNL1       -0.0186
     27 C         140.9473  137.6947  164.7959 C.ar    1  UNL1       -0.0041
     28 C         141.8937  137.6277  163.6340 C.ar    1  UNL1        0.0020
     29 C         141.3625  137.6554  162.2315 C.ar    1  UNL1        0.0296
     30 C         139.8849  137.7501  161.9909 C.ar    1  UNL1        0.1398
     31 F         139.3537  137.7778  160.5884 F       1  UNL1       -0.2042
     32 C         138.9386  137.8172  163.1528 C.ar    1  UNL1        0.0254
@<TRIPOS>BOND
     1    14    15    2
     2    15    16    2
     3    15    12    1
     4    12    11    1
     5    11    10    1
     6    10     1    1
     7     1     2    1
     8     2     3    1
     9     3     4    1
    10     4     5    1
    11     5    24    1
    12    24    25    1
    13    25    26    1
    14    26    27   ar
    15    27    28   ar
    16    28    29   ar
    17    29    30   ar
    18    30    31    1
    19    30    32   ar
    20     5     6    1
    21     6     7    1
    22     7     8    1
    23     7     9    1
    24    15    17    1
    25    17    18   ar
    26    18    19   ar
    27    19    20   ar
    28    20    21    1
    29    20    22   ar
    30    22    23   ar
    31     8     1    1
    32    23    17   ar
    33     9     3    1
    34    32    26   ar
    35    12    13    1
@<TRIPOS>MOLECULE
*****
 32 35 0 0 0
SMALL
GASTEIGER

@<TRIPOS>ATOM
      1 N         138.7132  144.0790  163.0676 N.3     1  UNL1       -0.2673
      2 C         139.3274  143.8441  164.4157 C.3     1  UNL1        0.1035
      3 C         139.2282  142.4932  165.0600 C.3     1  UNL1        0.1470
      4 C         139.1289  141.1423  165.7044 C.3     1  UNL1        0.1035
      5 N         138.4155  140.0262  165.0006 N.3     1  UNL1       -0.2682
      6 C         137.8013  140.2611  163.6523 C.3     1  UNL1        0.1035
      7 C         137.9005  141.6120  163.0080 C.3     1  UNL1        0.1470
      8 C         137.9998  142.9629  162.3637 C.3     1  UNL1        0.1035
      9 O         138.5147  141.3772  164.3562 O.3     1  UNL1       -0.3530
     10 C         138.8124  145.4299  162.4232 C.3     1  UNL1        0.0913
     11 C         140.1541  146.0727  162.2314 C.3     1  UNL1        0.1087
     12 N         141.1869  145.4098  161.3688 N.3     1  UNL1       -0.1780
     13 H         140.6823  144.9113  160.6358 H       1  UNL1        0.1488
     14 O         142.2820  145.3078  163.1826 O.2     1  UNL1       -0.1530
     15 S         142.1523  144.4327  161.9713 S.O2    1  UNL1        0.0603
     16 O         142.0225  143.5576  160.7600 O.2     1  UNL1       -0.1530
     17 C         143.1177  143.4555  162.5739 C.ar    1  UNL1        0.1221
     18 C         144.2235  142.8816  161.7385 C.ar    1  UNL1        0.0222
     19 C         145.1890  141.9044  162.3411 C.ar    1  UNL1        0.0310
     20 C         145.0486  141.5011  163.7790 C.ar    1  UNL1        0.1402
     21 F         146.0140  140.5240  164.3815 F       1  UNL1       -0.2042
     22 C         143.9427  142.0750  164.6144 C.ar    1  UNL1        0.0310
     23 C         142.9773  143.0522  164.0118 C.ar    1  UNL1        0.0222
     24 C         138.3163  138.6753  165.6449 C.3     1  UNL1        0.0769
     25 C         139.1359  137.5329  165.1220 C.3     1  UNL1        0.0437
     26 C         140.4308  137.8012  164.4141 C.ar    1  UNL1       -0.0186
     27 C         141.6215  138.2861  165.1867 C.ar    1  UNL1       -0.0041
     28 C         142.9165  138.5544  164.4787 C.ar    1  UNL1        0.0020
     29 C         143.0206  138.3377  162.9981 C.ar    1  UNL1        0.0296
     30 C         141.8298  137.8528  162.2255 C.ar    1  UNL1        0.1398
     31 F         141.9340  137.6361  160.7449 F       1  UNL1       -0.2042
     32 C         140.5350  137.5845  162.9334 C.ar    1  UNL1        0.0254
@<TRIPOS>BOND
     1    14    15    2
     2    15    16    2
     3    15    12    1
     4    12    11    1
     5    11    10    1
     6    10     1    1
     7     1     2    1
     8     2     3    1
     9     3     4    1
    10     4     5    1
    11     5    24    1
    12    24    25    1
    13    25    26    1
    14    26    27   ar
    15    27    28   ar
    16    28    29   ar
    17    29    30   ar
    18    30    31    1
    19    30    32   ar
    20     5     6    1
    21     6     7    1
    22     7     8    1
    23     7     9    1
    24    15    17    1
    25    17    18   ar
    26    18    19   ar
    27    19    20   ar
    28    20    21    1
    29    20    22   ar
    30    22    23   ar
    31     8     1    1
    32    23    17   ar
    33     9     3    1
    34    32    26   ar
    35    12    13    1
@<TRIPOS>MOLECULE
*****
 32 35 0 0 0
SMALL
GASTEIGER

@<TRIPOS>ATOM
      1 N         143.3777  140.2874  160.6796 N.3     1  UNL1       -0.2673
      2 C         142.1414  140.5041  159.8583 C.3     1  UNL1        0.1035
      3 C         141.4155  141.8150  159.9272 C.3     1  UNL1        0.1470
      4 C         140.6897  143.1259  159.9960 C.3     1  UNL1        0.1035
      5 N         141.2001  144.2200  160.8861 N.3     1  UNL1       -0.2682
      6 C         142.4365  144.0032  161.7074 C.3     1  UNL1        0.1035
      7 C         143.1623  142.6923  161.6386 C.3     1  UNL1        0.1470
      8 C         143.8881  141.3815  161.5697 C.3     1  UNL1        0.1035
      9 O         141.9260  142.9091  160.8173 O.3     1  UNL1       -0.3530
     10 C         144.1035  138.9764  160.6108 C.3     1  UNL1        0.0913
     11 C         143.8181  137.9071  161.6232 C.3     1  UNL1        0.1087
     12 N         142.4170  137.4046  161.8086 N.3     1  UNL1       -0.1780
     13 H         141.8935  137.6781  160.9770 H       1  UNL1        0.1488
     14 O         142.8525  138.3997  163.6307 O.2     1  UNL1       -0.1530
     15 S         141.6113  137.8495  162.9931 S.O2    1  UNL1        0.0603
     16 O         140.3701  137.2992  162.3555 O.2     1  UNL1       -0.1530
     17 C         140.8057  138.2943  164.1776 C.ar    1  UNL1        0.1221
     18 C         139.4346  137.7306  164.4065 C.ar    1  UNL1        0.0222
     19 C         138.6289  138.1755  165.5910 C.ar    1  UNL1        0.0310
     20 C         139.1944  139.1841  166.5466 C.ar    1  UNL1        0.1402
     21 F         138.3887  139.6289  167.7310 F       1  UNL1       -0.2042
     22 C         140.5654  139.7478  166.3176 C.ar    1  UNL1        0.0310
     23 C         141.3711  139.3029  165.1332 C.ar    1  UNL1        0.0222
     24 C         140.4743  145.5309  160.9550 C.3     1  UNL1        0.0769
     25 C         139.5584  145.8215  162.1068 C.3     1  UNL1        0.0437
     26 C         139.1318  144.7137  163.0238 C.ar    1  UNL1       -0.0186
     27 C         138.0504  143.7643  162.6007 C.ar    1  UNL1       -0.0041
     28 C         137.6238  142.6565  163.5177 C.ar    1  UNL1        0.0020
     29 C         138.2787  142.4982  164.8579 C.ar    1  UNL1        0.0296
     30 C         139.3602  143.4476  165.2810 C.ar    1  UNL1        0.1398
     31 F         140.0152  143.2893  166.6211 F       1  UNL1       -0.2042
     32 C         139.7868  144.5554  164.3640 C.ar    1  UNL1        0.0254
@<TRIPOS>BOND
     1    14    15    2
     2    15    16    2
     3    15    12    1
     4    12    11    1
     5    11    10    1
     6    10     1    1
     7     1     2    1
     8     2     3    1
     9     3     4    1
    10     4     5    1
    11     5    24    1
    12    24    25    1
    13    25    26    1
    14    26    27   ar
    15    27    28   ar
    16    28    29   ar
    17    29    30   ar
    18    30    31    1
    19    30    32   ar
    20     5     6    1
    21     6     7    1
    22     7     8    1
    23     7     9    1
    24    15    17    1
    25    17    18   ar
    26    18    19   ar
    27    19    20   ar
    28    20    21    1
    29    20    22   ar
    30    22    23   ar
    31     8     1    1
    32    23    17   ar
    33     9     3    1
    34    32    26   ar
    35    12    13    1
@<TRIPOS>MOLECULE
*****
 32 35 0 0 0
SMALL
GASTEIGER

@<TRIPOS>ATOM
      1 N         139.4947  142.7600  160.3204 N.3     1  UNL1       -0.2673
      2 C         140.4300  141.6096  160.5479 C.3     1  UNL1        0.1035
      3 C         140.1607  140.6313  161.6525 C.3     1  UNL1        0.1470
      4 C         139.8914  139.6529  162.7572 C.3     1  UNL1        0.1035
      5 N         138.6868  139.8250  163.6344 N.3     1  UNL1       -0.2682
      6 C         137.7516  140.9755  163.4068 C.3     1  UNL1        0.1035
      7 C         138.0209  141.9538  162.3022 C.3     1  UNL1        0.1470
      8 C         138.2902  142.9321  161.1975 C.3     1  UNL1        0.1035
      9 O         138.9561  140.8034  162.5297 O.3     1  UNL1       -0.3530
     10 C         139.7640  143.7384  159.2157 C.3     1  UNL1        0.0913
     11 C         140.9002  144.7104  159.3351 C.3     1  UNL1        0.1087
     12 N         141.0560  145.5329  160.5798 N.3     1  UNL1       -0.1780
     13 H         141.6795  146.3056  160.3461 H       1  UNL1        0.1488
     14 O         142.7672  144.3750  161.0602 O.2     1  UNL1       -0.1530
     15 S         141.5947  144.9051  161.8310 S.O2    1  UNL1        0.0603
     16 O         140.4222  145.4351  162.6018 O.2     1  UNL1       -0.1530
     17 C         142.1334  144.2772  163.0822 C.ar    1  UNL1        0.1221
     18 C         143.5540  144.5261  163.4946 C.ar    1  UNL1        0.0222
     19 C         144.0927  143.8982  164.7459 C.ar    1  UNL1        0.0310
     20 C         143.2109  143.0215  165.5847 C.ar    1  UNL1        0.1402
     21 F         143.7496  142.3937  166.8359 F       1  UNL1       -0.2042
     22 C         141.7903  142.7727  165.1724 C.ar    1  UNL1        0.0310
     23 C         141.2516  143.4005  163.9212 C.ar    1  UNL1        0.0222
     24 C         138.4175  138.8467  164.7390 C.3     1  UNL1        0.0769
     25 C         138.3260  139.3242  166.1581 C.3     1  UNL1        0.0437
     26 C         139.5764  139.5563  166.9534 C.ar    1  UNL1       -0.0186
     27 C         139.4845  140.0220  168.3763 C.ar    1  UNL1       -0.0041
     28 C         140.7349  140.2542  169.1718 C.ar    1  UNL1        0.0020
     29 C         142.0772  140.0206  168.5442 C.ar    1  UNL1        0.0296
     30 C         142.1690  139.5549  167.1213 C.ar    1  UNL1        0.1398
     31 F         143.5113  139.3213  166.4937 F       1  UNL1       -0.2042
     32 C         140.9186  139.3227  166.3259 C.ar    1  UNL1        0.0254
@<TRIPOS>BOND
     1    14    15    2
     2    15    16    2
     3    15    12    1
     4    12    11    1
     5    11    10    1
     6    10     1    1
     7     1     2    1
     8     2     3    1
     9     3     4    1
    10     4     5    1
    11     5    24    1
    12    24    25    1
    13    25    26    1
    14    26    27   ar
    15    27    28   ar
    16    28    29   ar
    17    29    30   ar
    18    30    31    1
    19    30    32   ar
    20     5     6    1
    21     6     7    1
    22     7     8    1
    23     7     9    1
    24    15    17    1
    25    17    18   ar
    26    18    19   ar
    27    19    20   ar
    28    20    21    1
    29    20    22   ar
    30    22    23   ar
    31     8     1    1
    32    23    17   ar
    33     9     3    1
    34    32    26   ar
    35    12    13    1
@<TRIPOS>MOLECULE
*****
 32 35 0 0 0
SMALL
GASTEIGER

@<TRIPOS>ATOM
      1 N         140.1033  142.6209  159.0775 N.3     1  UNL1       -0.2673
      2 C         138.7490  142.5611  159.7196 C.3     1  UNL1        0.1035
      3 C         138.3797  141.3919  160.5836 C.3     1  UNL1        0.1470
      4 C         138.0103  140.2227  161.4477 C.3     1  UNL1        0.1035
      5 N         138.9952  139.1134  161.6697 N.3     1  UNL1       -0.2682
      6 C         140.3496  139.1733  161.0276 C.3     1  UNL1        0.1035
      7 C         140.7189  140.3424  160.1635 C.3     1  UNL1        0.1470
      8 C         141.0882  141.5116  159.2995 C.3     1  UNL1        0.1035
      9 O         139.3646  140.2826  160.8056 O.3     1  UNL1       -0.3530
     10 C         140.4727  143.7901  158.2134 C.3     1  UNL1        0.0913
     11 C         140.4280  145.1807  158.7739 C.3     1  UNL1        0.1087
     12 N         141.3428  145.5657  159.8987 N.3     1  UNL1       -0.1780
     13 H         142.2717  145.2232  159.6532 H       1  UNL1        0.1488
     14 O         139.6758  145.6608  161.2071 O.2     1  UNL1       -0.1530
     15 S         141.0597  145.0887  161.2924 S.O2    1  UNL1        0.0603
     16 O         142.4437  144.5166  161.3776 O.2     1  UNL1       -0.1530
     17 C         140.7767  144.6117  162.6860 C.ar    1  UNL1        0.1221
     18 C         139.5311  145.0577  163.3929 C.ar    1  UNL1        0.0222
     19 C         139.2481  144.5806  164.7867 C.ar    1  UNL1        0.0310
     20 C         140.2106  143.6577  165.4734 C.ar    1  UNL1        0.1402
     21 F         139.9276  143.1807  166.8670 F       1  UNL1       -0.2042
     22 C         141.4562  143.2117  164.7665 C.ar    1  UNL1        0.0310
     23 C         141.7392  143.6887  163.3728 C.ar    1  UNL1        0.0222
     24 C         138.6259  137.9442  162.5337 C.3     1  UNL1        0.0769
     25 C         139.5154  137.5429  163.6730 C.3     1  UNL1        0.0437
     26 C         139.4837  138.3164  164.9577 C.ar    1  UNL1       -0.0186
     27 C         138.2715  138.2570  165.8392 C.ar    1  UNL1       -0.0041
     28 C         138.2397  139.0305  167.1240 C.ar    1  UNL1        0.0020
     29 C         139.4202  139.8634  167.5273 C.ar    1  UNL1        0.0296
     30 C         140.6325  139.9228  166.6458 C.ar    1  UNL1        0.1398
     31 F         141.8130  140.7557  167.0491 F       1  UNL1       -0.2042
     32 C         140.6642  139.1493  165.3611 C.ar    1  UNL1        0.0254
@<TRIPOS>BOND
     1    14    15    2
     2    15    16    2
     3    15    12    1
     4    12    11    1
     5    11    10    1
     6    10     1    1
     7     1     2    1
     8     2     3    1
     9     3     4    1
    10     4     5    1
    11     5    24    1
    12    24    25    1
    13    25    26    1
    14    26    27   ar
    15    27    28   ar
    16    28    29   ar
    17    29    30   ar
    18    30    31    1
    19    30    32   ar
    20     5     6    1
    21     6     7    1
    22     7     8    1
    23     7     9    1
    24    15    17    1
    25    17    18   ar
    26    18    19   ar
    27    19    20   ar
    28    20    21    1
    29    20    22   ar
    30    22    23   ar
    31     8     1    1
    32    23    17   ar
    33     9     3    1
    34    32    26   ar
    35    12    13    1
@<TRIPOS>MOLECULE
*****
 32 35 0 0 0
SMALL
GASTEIGER

@<TRIPOS>ATOM
      1 N         144.5194  141.6844  163.3953 N.3     1  UNL1       -0.2673
      2 C         143.8020  141.4884  162.0927 C.3     1  UNL1        0.1035
      3 C         142.8152  142.5137  161.6183 C.3     1  UNL1        0.1470
      4 C         141.8283  143.5389  161.1439 C.3     1  UNL1        0.1035
      5 N         141.5588  144.7601  161.9722 N.3     1  UNL1       -0.2682
      6 C         142.2763  144.9560  163.2749 C.3     1  UNL1        0.1035
      7 C         143.2631  143.9308  163.7493 C.3     1  UNL1        0.1470
      8 C         144.2499  142.9056  164.2236 C.3     1  UNL1        0.1035
      9 O         142.5457  143.7348  162.4466 O.3     1  UNL1       -0.3530
     10 C         145.5063  140.6591  163.8697 C.3     1  UNL1        0.0913
     11 C         145.0226  139.3988  164.5236 C.3     1  UNL1        0.1087
     12 N         143.5979  138.9628  164.3498 N.3     1  UNL1       -0.1780
     13 H         143.2519  139.4171  163.5047 H       1  UNL1        0.1488
     14 O         141.6521  139.8053  164.4108 O.2     1  UNL1       -0.1530
     15 S         142.5933  139.2348  165.4299 S.O2    1  UNL1        0.0603
     16 O         143.5344  138.6643  166.4491 O.2     1  UNL1       -0.1530
     17 C         141.5886  139.5069  166.5100 C.ar    1  UNL1        0.1221
     18 C         140.1238  139.5144  166.1872 C.ar    1  UNL1        0.0222
     19 C         139.1191  139.7864  167.2673 C.ar    1  UNL1        0.0310
     20 C         139.5793  140.0510  168.6702 C.ar    1  UNL1        0.1402
     21 F         138.5746  140.3230  169.7503 F       1  UNL1       -0.2042
     22 C         141.0441  140.0435  168.9931 C.ar    1  UNL1        0.0310
     23 C         142.0488  139.7714  167.9130 C.ar    1  UNL1        0.0222
     24 C         140.5720  145.7853  161.4979 C.3     1  UNL1        0.0769
     25 C         139.1762  145.7933  162.0472 C.3     1  UNL1        0.0437
     26 C         138.6840  144.6337  162.8615 C.ar    1  UNL1       -0.0186
     27 C         138.7281  144.6967  164.3595 C.ar    1  UNL1       -0.0041
     28 C         138.2359  143.5371  165.1738 C.ar    1  UNL1        0.0020
     29 C         137.6997  142.3144  164.4900 C.ar    1  UNL1        0.0296
     30 C         137.6557  142.2514  162.9920 C.ar    1  UNL1        0.1398
     31 F         137.1195  141.0287  162.3082 F       1  UNL1       -0.2042
     32 C         138.1478  143.4110  162.1777 C.ar    1  UNL1        0.0254
@<TRIPOS>BOND
     1    14    15    2
     2    15    16    2
     3    15    12    1
     4    12    11    1
     5    11    10    1
     6    10     1    1
     7     1     2    1
     8     2     3    1
     9     3     4    1
    10     4     5    1
    11     5    24    1
    12    24    25    1
    13    25    26    1
    14    26    27   ar
    15    27    28   ar
    16    28    29   ar
    17    29    30   ar
    18    30    31    1
    19    30    32   ar
    20     5     6    1
    21     6     7    1
    22     7     8    1
    23     7     9    1
    24    15    17    1
    25    17    18   ar
    26    18    19   ar
    27    19    20   ar
    28    20    21    1
    29    20    22   ar
    30    22    23   ar
    31     8     1    1
    32    23    17   ar
    33     9     3    1
    34    32    26   ar
    35    12    13    1
