@<TRIPOS>MOLECULE
*****
 18 19 0 0 0
SMALL
GASTEIGER

@<TRIPOS>ATOM
      1 C         138.9905  139.8848  166.8379 C.2     1  UNL1        0.1535
      2 N         138.9419  139.4811  168.2818 N.2     1  UNL1       -0.2471
      3 C         140.0119  140.2383  169.0111 C.3     1  UNL1        0.1696
      4 C         140.7218  141.1099  168.0179 C.3     1  UNL1        0.1936
      5 O         141.8512  141.9900  168.4648 O.3     1  UNL1       -0.3427
      6 C         142.2709  141.9983  169.9050 C.3     1  UNL1        0.1480
      7 C         141.5611  141.1267  170.8981 C.3     1  UNL1        0.0635
      8 C         140.4315  140.2466  170.4511 C.3     1  UNL1        0.1386
      9 O         139.7217  139.3749  171.4442 O.3     1  UNL1       -0.3823
     10 S         140.0905  140.8915  166.6749 S.3     1  UNL1       -0.0497
     11 H         140.1140  139.4998  172.3225 H       1  UNL1        0.2104
     12 C         143.4004  142.8784  170.3519 C.3     1  UNL1        0.1667
     13 O         143.1159  144.1178  171.1473 O.3     1  UNL1       -0.3795
     14 H         142.6258  144.7493  170.5977 H       1  UNL1        0.2105
     15 N         138.0961  139.3719  165.7485 N.pl3   1  UNL1       -0.3135
     16 H         137.1184  139.4438  165.8395 H       1  UNL1        0.1487
     17 C         139.6457  137.5996  164.6497 C.3     1  UNL1        0.0230
     18 C         138.6912  138.7494  164.5204 C.3     1  UNL1        0.0887
@<TRIPOS>BOND
     1    17    18    1
     2    18    15    1
     3    15     1    1
     4     1     2    2
     5     3     2    1
     6     3     4    1
     7     4     5    1
     8     5     6    1
     9     6    12    1
    10    12    13    1
    11     6     7    1
    12     7     8    1
    13     8     9    1
    14     4    10    1
    15    10     1    1
    16     8     3    1
    17    15    16    1
    18    13    14    1
    19     9    11    1
@<TRIPOS>MOLECULE
*****
 18 19 0 0 0
SMALL
GASTEIGER

@<TRIPOS>ATOM
      1 C         142.6009  139.0538  166.6674 C.2     1  UNL1        0.1535
      2 N         143.1629  138.9469  168.0540 N.2     1  UNL1       -0.2471
      3 C         142.4369  139.9284  168.9255 C.3     1  UNL1        0.1696
      4 C         141.4261  140.6420  168.0775 C.3     1  UNL1        0.1936
      5 O         140.5440  141.6917  168.6857 O.3     1  UNL1       -0.3427
      6 C         140.6727  142.0280  170.1419 C.3     1  UNL1        0.1480
      7 C         141.6836  141.3144  170.9899 C.3     1  UNL1        0.0635
      8 C         142.5657  140.2646  170.3816 C.3     1  UNL1        0.1386
      9 O         143.5765  139.5510  171.2296 O.3     1  UNL1       -0.3823
     10 S         141.5275  140.1014  166.6820 S.3     1  UNL1       -0.0497
     11 H         143.5292  139.8851  172.1391 H       1  UNL1        0.2104
     12 C         139.7907  143.0778  170.7500 C.3     1  UNL1        0.1667
     13 O         139.9704  144.5185  170.3734 O.3     1  UNL1       -0.3795
     14 H         140.8336  144.8297  170.6879 H       1  UNL1        0.2105
     15 N         143.0358  138.2535  165.4756 N.pl3   1  UNL1       -0.3135
     16 H         143.9269  137.8353  165.4621 H       1  UNL1        0.1487
     17 C         141.0305  137.0530  164.3410 C.3     1  UNL1        0.0230
     18 C         142.1131  138.0906  164.3043 C.3     1  UNL1        0.0887
@<TRIPOS>BOND
     1    17    18    1
     2    18    15    1
     3    15     1    1
     4     1     2    2
     5     3     2    1
     6     3     4    1
     7     4     5    1
     8     5     6    1
     9     6    12    1
    10    12    13    1
    11     6     7    1
    12     7     8    1
    13     8     9    1
    14     4    10    1
    15    10     1    1
    16     8     3    1
    17    15    16    1
    18    13    14    1
    19     9    11    1
@<TRIPOS>MOLECULE
*****
 18 19 0 0 0
SMALL
GASTEIGER

@<TRIPOS>ATOM
      1 C         139.5346  140.7062  169.1274 C.2     1  UNL1        0.1535
      2 N         138.4785  139.6901  168.8076 N.2     1  UNL1       -0.2471
      3 C         138.7716  139.1293  167.4476 C.3     1  UNL1        0.1696
      4 C         140.0088  139.7987  166.9269 C.3     1  UNL1        0.1936
      5 O         140.5461  139.4344  165.5747 O.3     1  UNL1       -0.3427
      6 C         139.8462  138.4005  164.7431 C.3     1  UNL1        0.1480
      7 C         138.6090  137.7311  165.2638 C.3     1  UNL1        0.0635
      8 C         138.0717  138.0955  166.6161 C.3     1  UNL1        0.1386
      9 O         136.8345  137.4260  167.1368 O.3     1  UNL1       -0.3823
     10 S         140.4803  140.7733  167.9651 S.3     1  UNL1       -0.0497
     11 H         136.5106  136.7896  166.4804 H       1  UNL1        0.2104
     12 C         140.3836  138.0362  163.3909 C.3     1  UNL1        0.1667
     13 O         141.1320  136.7500  163.2030 O.3     1  UNL1       -0.3795
     14 H         141.9619  136.7826  163.7041 H       1  UNL1        0.2105
     15 N         139.6284  141.5134  170.3882 N.pl3   1  UNL1       -0.3135
     16 H         139.0037  141.3426  171.1297 H       1  UNL1        0.1487
     17 C         140.4329  143.9424  169.9379 C.3     1  UNL1        0.0230
     18 C         140.6741  142.5809  170.5193 C.3     1  UNL1        0.0887
@<TRIPOS>BOND
     1    17    18    1
     2    18    15    1
     3    15     1    1
     4     1     2    2
     5     3     2    1
     6     3     4    1
     7     4     5    1
     8     5     6    1
     9     6    12    1
    10    12    13    1
    11     6     7    1
    12     7     8    1
    13     8     9    1
    14     4    10    1
    15    10     1    1
    16     8     3    1
    17    15    16    1
    18    13    14    1
    19     9    11    1
@<TRIPOS>MOLECULE
*****
 18 19 0 0 0
SMALL
GASTEIGER

@<TRIPOS>ATOM
      1 C         139.8255  141.1128  166.5039 C.2     1  UNL1        0.1535
      2 N         138.6872  140.8694  165.5579 N.2     1  UNL1       -0.2471
      3 C         138.6466  142.0056  164.5794 C.3     1  UNL1        0.1696
      4 C         139.7598  142.9512  164.9207 C.3     1  UNL1        0.1936
      5 O         139.9662  144.1925  164.1043 O.3     1  UNL1       -0.3427
      6 C         139.0593  144.4883  162.9466 C.3     1  UNL1        0.1480
      7 C         137.9461  143.5426  162.6053 C.3     1  UNL1        0.0635
      8 C         137.7398  142.3012  163.4217 C.3     1  UNL1        0.1386
      9 O         136.6265  141.3556  163.0804 O.3     1  UNL1       -0.3823
     10 S         140.4884  142.3994  166.1101 S.3     1  UNL1       -0.0497
     11 H         136.1400  141.6928  162.3120 H       1  UNL1        0.2104
     12 C         139.2657  145.7296  162.1302 C.3     1  UNL1        0.1667
     13 O         140.4177  146.6420  162.4309 O.3     1  UNL1       -0.3795
     14 H         140.2935  147.0419  163.3059 H       1  UNL1        0.2105
     15 N         140.2299  140.2254  167.6436 N.pl3   1  UNL1       -0.3135
     16 H         141.0279  139.6544  167.5637 H       1  UNL1        0.1487
     17 C         139.5929  141.2947  169.9241 C.3     1  UNL1        0.0230
     18 C         139.4185  140.2079  168.9050 C.3     1  UNL1        0.0887
@<TRIPOS>BOND
     1    17    18    1
     2    18    15    1
     3    15     1    1
     4     1     2    2
     5     3     2    1
     6     3     4    1
     7     4     5    1
     8     5     6    1
     9     6    12    1
    10    12    13    1
    11     6     7    1
    12     7     8    1
    13     8     9    1
    14     4    10    1
    15    10     1    1
    16     8     3    1
    17    15    16    1
    18    13    14    1
    19     9    11    1
@<TRIPOS>MOLECULE
*****
 18 19 0 0 0
SMALL
GASTEIGER

@<TRIPOS>ATOM
      1 C         140.8125  140.0291  164.6146 C.2     1  UNL1        0.1535
      2 N         139.3659  140.1070  164.2259 N.2     1  UNL1       -0.2471
      3 C         139.1035  141.4829  163.6892 C.3     1  UNL1        0.1696
      4 C         140.3880  142.2554  163.7462 C.3     1  UNL1        0.1936
      5 O         140.4299  143.6772  163.2700 O.3     1  UNL1       -0.3427
      6 C         139.1873  144.3265  162.7367 C.3     1  UNL1        0.1480
      7 C         137.9027  143.5540  162.6797 C.3     1  UNL1        0.0635
      8 C         137.8609  142.1321  163.1559 C.3     1  UNL1        0.1386
      9 O         136.5764  141.3596  163.0989 O.3     1  UNL1       -0.3823
     10 S         141.4442  141.3569  164.3181 S.3     1  UNL1       -0.0497
     11 H         135.8768  141.9221  162.7313 H       1  UNL1        0.2104
     12 C         139.2292  145.7482  162.2605 C.3     1  UNL1        0.1667
     13 O         140.5184  146.5139  162.2978 O.3     1  UNL1       -0.3795
     14 H         140.7910  146.6434  163.2197 H       1  UNL1        0.2105
     15 N         141.5058  138.8334  165.1974 N.pl3   1  UNL1       -0.3135
     16 H         142.2024  138.9538  165.8826 H       1  UNL1        0.1487
     17 C         141.1069  137.1368  163.2707 C.3     1  UNL1        0.0230
     18 C         141.1376  137.4544  164.7364 C.3     1  UNL1        0.0887
@<TRIPOS>BOND
     1    17    18    1
     2    18    15    1
     3    15     1    1
     4     1     2    2
     5     3     2    1
     6     3     4    1
     7     4     5    1
     8     5     6    1
     9     6    12    1
    10    12    13    1
    11     6     7    1
    12     7     8    1
    13     8     9    1
    14     4    10    1
    15    10     1    1
    16     8     3    1
    17    15    16    1
    18    13    14    1
    19     9    11    1
@<TRIPOS>MOLECULE
*****
 18 19 0 0 0
SMALL
GASTEIGER

@<TRIPOS>ATOM
      1 C         142.0925  141.3138  163.3480 C.2     1  UNL1        0.1535
      2 N         141.9830  139.8575  163.0055 N.2     1  UNL1       -0.2471
      3 C         140.9238  139.2541  163.8794 C.3     1  UNL1        0.1696
      4 C         140.3785  140.3374  164.7621 C.3     1  UNL1        0.1936
      5 O         139.2948  140.0248  165.7509 O.3     1  UNL1       -0.3427
      6 C         138.7563  138.6288  165.8571 C.3     1  UNL1        0.1480
      7 C         139.3015  137.5454  164.9744 C.3     1  UNL1        0.0635
      8 C         140.3853  137.8581  163.9855 C.3     1  UNL1        0.1386
      9 O         140.9305  136.7748  163.1029 O.3     1  UNL1       -0.3823
     10 S         141.1008  141.6103  164.4336 S.3     1  UNL1       -0.0497
     11 H         140.4770  135.9399  163.2980 H       1  UNL1        0.2104
     12 C         137.6725  138.3161  166.8458 C.3     1  UNL1        0.1667
     13 O         137.3062  136.8898  167.1311 O.3     1  UNL1       -0.3795
     14 H         136.9208  136.4898  166.3359 H       1  UNL1        0.2105
     15 N         143.0291  142.3002  162.7158 N.pl3   1  UNL1       -0.3135
     16 H         142.7515  142.7978  161.9129 H       1  UNL1        0.1487
     17 C         145.1836  141.3690  163.8297 C.3     1  UNL1        0.0230
     18 C         144.3887  142.5286  163.3069 C.3     1  UNL1        0.0887
@<TRIPOS>BOND
     1    17    18    1
     2    18    15    1
     3    15     1    1
     4     1     2    2
     5     3     2    1
     6     3     4    1
     7     4     5    1
     8     5     6    1
     9     6    12    1
    10    12    13    1
    11     6     7    1
    12     7     8    1
    13     8     9    1
    14     4    10    1
    15    10     1    1
    16     8     3    1
    17    15    16    1
    18    13    14    1
    19     9    11    1
@<TRIPOS>MOLECULE
*****
 18 19 0 0 0
SMALL
GASTEIGER

@<TRIPOS>ATOM
      1 C         143.1425  142.3812  165.8247 C.2     1  UNL1        0.1535
      2 N         143.7786  142.7915  167.1197 N.2     1  UNL1       -0.2471
      3 C         142.9917  142.1755  168.2383 C.3     1  UNL1        0.1696
      4 C         141.8693  141.3844  167.6347 C.3     1  UNL1        0.1936
      5 O         140.9074  140.6506  168.5213 O.3     1  UNL1       -0.3427
      6 C         141.0679  140.7077  170.0116 C.3     1  UNL1        0.1480
      7 C         142.1903  141.4987  170.6153 C.3     1  UNL1        0.0635
      8 C         143.1523  142.2326  169.7286 C.3     1  UNL1        0.1386
      9 O         144.2747  143.0236  170.3322 O.3     1  UNL1       -0.3823
     10 S         141.9625  141.5116  166.1430 S.3     1  UNL1       -0.0497
     11 H         144.2346  142.9559  171.2990 H       1  UNL1        0.2104
     12 C         140.1060  139.9738  170.8982 C.3     1  UNL1        0.1667
     13 O         138.6561  139.8884  170.5233 O.3     1  UNL1       -0.3795
     14 H         138.2616  140.7740  170.5537 H       1  UNL1        0.2105
     15 N         143.6052  142.7719  164.4524 N.pl3   1  UNL1       -0.3135
     16 H         144.3539  142.2920  164.0301 H       1  UNL1        0.1487
     17 C         143.6149  145.2193  163.5805 C.3     1  UNL1        0.0230
     18 C         142.9272  143.8940  163.7234 C.3     1  UNL1        0.0887
@<TRIPOS>BOND
     1    17    18    1
     2    18    15    1
     3    15     1    1
     4     1     2    2
     5     3     2    1
     6     3     4    1
     7     4     5    1
     8     5     6    1
     9     6    12    1
    10    12    13    1
    11     6     7    1
    12     7     8    1
    13     8     9    1
    14     4    10    1
    15    10     1    1
    16     8     3    1
    17    15    16    1
    18    13    14    1
    19     9    11    1
@<TRIPOS>MOLECULE
*****
 18 19 0 0 0
SMALL
GASTEIGER

@<TRIPOS>ATOM
      1 C         138.2446  141.9385  163.6700 C.2     1  UNL1        0.1535
      2 N         139.1780  143.0214  164.1240 N.2     1  UNL1       -0.2471
      3 C         139.6379  143.7755  162.9116 C.3     1  UNL1        0.1696
      4 C         138.9886  143.1587  161.7083 C.3     1  UNL1        0.1936
      5 O         139.2654  143.7105  160.3412 O.3     1  UNL1       -0.3427
      6 C         140.1915  144.8792  160.1775 C.3     1  UNL1        0.1480
      7 C         140.8407  145.4960  161.3809 C.3     1  UNL1        0.0635
      8 C         140.5639  144.9441  162.7480 C.3     1  UNL1        0.1386
      9 O         141.2131  145.5608  163.9513 O.3     1  UNL1       -0.3823
     10 S         138.1276  142.0234  162.1769 S.3     1  UNL1       -0.0497
     11 H         141.7765  146.2994  163.6719 H       1  UNL1        0.2104
     12 C         140.4683  145.4310  158.8105 C.3     1  UNL1        0.1667
     13 O         141.8659  145.8171  158.4264 O.3     1  UNL1       -0.3795
     14 H         142.1534  146.5698  158.9666 H       1  UNL1        0.2105
     15 N         137.5501  140.9452  164.5537 N.pl3   1  UNL1       -0.3135
     16 H         136.6445  141.1345  164.8903 H       1  UNL1        0.1487
     17 C         138.0531  139.0855  166.2968 C.3     1  UNL1        0.0230
     18 C         138.2355  139.6636  164.9247 C.3     1  UNL1        0.0887
@<TRIPOS>BOND
     1    17    18    1
     2    18    15    1
     3    15     1    1
     4     1     2    2
     5     3     2    1
     6     3     4    1
     7     4     5    1
     8     5     6    1
     9     6    12    1
    10    12    13    1
    11     6     7    1
    12     7     8    1
    13     8     9    1
    14     4    10    1
    15    10     1    1
    16     8     3    1
    17    15    16    1
    18    13    14    1
    19     9    11    1
@<TRIPOS>MOLECULE
*****
 18 19 0 0 0
SMALL
GASTEIGER

@<TRIPOS>ATOM
      1 C         140.2938  140.1400  164.7732 C.2     1  UNL1        0.1535
      2 N         141.4761  139.3923  165.3146 N.2     1  UNL1       -0.2471
      3 C         141.6111  139.7297  166.7699 C.3     1  UNL1        0.1696
      4 C         140.5123  140.6859  167.1279 C.3     1  UNL1        0.1936
      5 O         140.3950  141.2021  168.5314 O.3     1  UNL1       -0.3427
      6 C         141.3765  140.7622  169.5769 C.3     1  UNL1        0.1480
      7 C         142.4754  139.8059  169.2189 C.3     1  UNL1        0.0635
      8 C         142.5926  139.2897  167.8153 C.3     1  UNL1        0.1386
      9 O         143.6915  138.3334  167.4573 O.3     1  UNL1       -0.3823
     10 S         139.6981  140.9395  165.8939 S.3     1  UNL1       -0.0497
     11 H         144.2326  138.1542  168.2422 H       1  UNL1        0.2104
     12 C         141.2593  141.2784  170.9803 C.3     1  UNL1        0.1667
     13 O         140.6317  140.4259  172.0430 O.3     1  UNL1       -0.3795
     14 H         139.6924  140.2945  171.8393 H       1  UNL1        0.2105
     15 N         139.7948  140.0960  163.3593 N.pl3   1  UNL1       -0.3135
     16 H         140.0668  140.7929  162.7194 H       1  UNL1        0.1487
     17 C         138.9041  137.6709  163.6341 C.3     1  UNL1        0.0230
     18 C         138.8815  138.9900  162.9204 C.3     1  UNL1        0.0887
@<TRIPOS>BOND
     1    17    18    1
     2    18    15    1
     3    15     1    1
     4     1     2    2
     5     3     2    1
     6     3     4    1
     7     4     5    1
     8     5     6    1
     9     6    12    1
    10    12    13    1
    11     6     7    1
    12     7     8    1
    13     8     9    1
    14     4    10    1
    15    10     1    1
    16     8     3    1
    17    15    16    1
    18    13    14    1
    19     9    11    1
