@<TRIPOS>MOLECULE
*****
 27 29 0 0 0
SMALL
GASTEIGER

@<TRIPOS>ATOM
      1 C         140.6997  142.1474  166.2073 C.ar    1  UNL1        0.1058
      2 N         141.4635  142.7828  167.3310 N.ar    1  UNL1       -0.3419
      3 C         141.2732  142.2957  168.7370 C.ar    1  UNL1        0.0637
      4 C         142.0370  142.9312  169.8607 C.ar    1  UNL1        0.0379
      5 C         141.8467  142.4441  171.2665 C.ar    1  UNL1        0.1037
      6 N         140.8926  141.3216  171.5487 N.ar    1  UNL1       -0.2062
      7 C         140.1288  140.6861  170.4250 C.ar    1  UNL1        0.2806
      8 O         139.1748  139.5636  170.7071 O.2     1  UNL1       -0.2651
      9 C         140.3191  141.1732  169.0191 C.ar    1  UNL1        0.0736
     10 C         139.5553  140.5377  167.8953 C.ar    1  UNL1        0.0109
     11 C         138.6012  139.4152  168.1775 C.ar    1  UNL1        0.0299
     12 C         137.8374  138.7798  167.0538 C.ar    1  UNL1        0.1401
     13 F         136.8833  137.6572  167.3359 F       1  UNL1       -0.2042
     14 C         138.0277  139.2668  165.6478 C.ar    1  UNL1        0.0297
     15 C         138.9818  140.3894  165.3657 C.ar    1  UNL1        0.0050
     16 C         139.7456  141.0248  166.4895 C.ar    1  UNL1        0.0298
     17 H         142.0897  143.5196  167.1458 H       1  UNL1        0.1671
     18 N         140.8900  142.6345  164.8014 N.pl3   1  UNL1       -0.3142
     19 H         141.4728  142.1375  164.1828 H       1  UNL1        0.1483
     20 C         140.1922  143.8788  164.3378 C.3     1  UNL1        0.1663
     21 C         138.7417  144.0886  164.6575 C.3     1  UNL1        0.4135
     22 F         137.2913  144.2984  164.9771 F       1  UNL1       -0.1682
     23 F         138.3654  143.0848  163.6084 F       1  UNL1       -0.1682
     24 F         139.1181  145.0924  165.7066 F       1  UNL1       -0.1682
     25 C         140.2488  145.6926  162.4786 C.3     1  UNL1        0.0020
     26 C         140.9449  144.9132  163.5547 C.3     1  UNL1        0.0264
     27 C         142.3937  145.1684  163.8477 C.3     1  UNL1        0.0020
@<TRIPOS>BOND
     1    25    26    1
     2    26    27    1
     3    26    20    1
     4    20    18    1
     5    18     1    1
     6     1     2   ar
     7     2     3   ar
     8     3     4   ar
     9     4     5   ar
    10     5     6   ar
    11     6     7   ar
    12     7     8    2
    13     7     9   ar
    14     9    10   ar
    15    10    11   ar
    16    11    12   ar
    17    12    13    1
    18    12    14   ar
    19    14    15   ar
    20    15    16   ar
    21    20    21    1
    22    21    22    1
    23    21    23    1
    24    21    24    1
    25    16     1   ar
    26     9     3    1
    27    16    10   ar
    28    18    19    1
    29     2    17    1
@<TRIPOS>MOLECULE
*****
 27 29 0 0 0
SMALL
GASTEIGER

@<TRIPOS>ATOM
      1 C         140.7797  141.8754  166.1226 C.ar    1  UNL1        0.1058
      2 N         141.5493  142.5509  167.2187 N.ar    1  UNL1       -0.3419
      3 C         141.3146  142.1633  168.6487 C.ar    1  UNL1        0.0637
      4 C         142.0842  142.8388  169.7448 C.ar    1  UNL1        0.0379
      5 C         141.8495  142.4512  171.1747 C.ar    1  UNL1        0.1037
      6 N         140.8452  141.3882  171.5085 N.ar    1  UNL1       -0.2062
      7 C         140.0756  140.7127  170.4124 C.ar    1  UNL1        0.2806
      8 O         139.0714  139.6497  170.7462 O.2     1  UNL1       -0.2651
      9 C         140.3103  141.1003  168.9825 C.ar    1  UNL1        0.0736
     10 C         139.5408  140.4248  167.8863 C.ar    1  UNL1        0.0109
     11 C         138.5365  139.3618  168.2201 C.ar    1  UNL1        0.0299
     12 C         137.7669  138.6863  167.1240 C.ar    1  UNL1        0.1401
     13 F         136.7627  137.6233  167.4578 F       1  UNL1       -0.2042
     14 C         138.0016  139.0739  165.6940 C.ar    1  UNL1        0.0297
     15 C         139.0059  140.1369  165.3602 C.ar    1  UNL1        0.0050
     16 C         139.7754  140.8124  166.4564 C.ar    1  UNL1        0.0298
     17 H         142.2084  143.2486  166.9996 H       1  UNL1        0.1671
     18 N         141.0144  142.2630  164.6926 N.pl3   1  UNL1       -0.3142
     19 H         141.5994  141.7128  164.1231 H       1  UNL1        0.1483
     20 C         140.3577  143.4888  164.1304 C.3     1  UNL1        0.1663
     21 C         141.0954  144.3522  163.1502 C.3     1  UNL1        0.4135
     22 F         141.8330  145.2154  162.1701 F       1  UNL1       -0.1682
     23 F         140.4663  143.6006  162.0148 F       1  UNL1       -0.1682
     24 F         141.7245  145.1038  164.2857 F       1  UNL1       -0.1682
     25 C         138.7432  144.9132  165.5845 C.3     1  UNL1        0.0020
     26 C         138.9635  143.8513  164.5482 C.3     1  UNL1        0.0264
     27 C         137.7895  143.1520  163.9297 C.3     1  UNL1        0.0020
@<TRIPOS>BOND
     1    25    26    1
     2    26    27    1
     3    26    20    1
     4    20    18    1
     5    18     1    1
     6     1     2   ar
     7     2     3   ar
     8     3     4   ar
     9     4     5   ar
    10     5     6   ar
    11     6     7   ar
    12     7     8    2
    13     7     9   ar
    14     9    10   ar
    15    10    11   ar
    16    11    12   ar
    17    12    13    1
    18    12    14   ar
    19    14    15   ar
    20    15    16   ar
    21    20    21    1
    22    21    22    1
    23    21    23    1
    24    21    24    1
    25    16     1   ar
    26     9     3    1
    27    16    10   ar
    28    18    19    1
    29     2    17    1
@<TRIPOS>MOLECULE
*****
 27 29 0 0 0
SMALL
GASTEIGER

@<TRIPOS>ATOM
      1 C         141.5072  141.6024  166.2220 C.ar    1  UNL1        0.1058
      2 N         142.1842  142.2357  167.4012 N.ar    1  UNL1       -0.3419
      3 C         141.7032  141.9391  168.7907 C.ar    1  UNL1        0.0637
      4 C         142.3802  142.5724  169.9699 C.ar    1  UNL1        0.0379
      5 C         141.8992  142.2757  171.3593 C.ar    1  UNL1        0.1037
      6 N         140.7413  141.3457  171.5696 N.ar    1  UNL1       -0.2062
      7 C         140.0643  140.7124  170.3904 C.ar    1  UNL1        0.2806
      8 O         138.9063  139.7824  170.6006 O.2     1  UNL1       -0.2651
      9 C         140.5453  141.0091  169.0009 C.ar    1  UNL1        0.0736
     10 C         139.8683  140.3757  167.8216 C.ar    1  UNL1        0.0109
     11 C         138.7103  139.4457  168.0319 C.ar    1  UNL1        0.0299
     12 C         138.0333  138.8124  166.8527 C.ar    1  UNL1        0.1401
     13 F         136.8753  137.8824  167.0629 F       1  UNL1       -0.2042
     14 C         138.5143  139.1091  165.4631 C.ar    1  UNL1        0.0297
     15 C         139.6723  140.0391  165.2529 C.ar    1  UNL1        0.0050
     16 C         140.3492  140.6724  166.4322 C.ar    1  UNL1        0.0298
     17 H         142.9442  142.8461  167.2632 H       1  UNL1        0.1671
     18 N         141.9882  141.8991  164.8324 N.pl3   1  UNL1       -0.3142
     19 H         141.3673  141.8309  164.0715 H       1  UNL1        0.1483
     20 C         143.4153  142.2998  164.6023 C.3     1  UNL1        0.1663
     21 C         143.8050  143.7475  164.6512 C.3     1  UNL1        0.4135
     22 F         144.1947  145.1952  164.7000 F       1  UNL1       -0.1682
     23 F         143.0362  143.9971  163.3876 F       1  UNL1       -0.1682
     24 F         144.5738  143.4980  165.9148 F       1  UNL1       -0.1682
     25 C         144.2077  139.8286  164.7253 C.3     1  UNL1        0.0020
     26 C         144.4526  141.2529  164.3234 C.3     1  UNL1        0.0264
     27 C         145.7347  141.6302  163.6425 C.3     1  UNL1        0.0020
@<TRIPOS>BOND
     1    25    26    1
     2    26    27    1
     3    26    20    1
     4    20    18    1
     5    18     1    1
     6     1     2   ar
     7     2     3   ar
     8     3     4   ar
     9     4     5   ar
    10     5     6   ar
    11     6     7   ar
    12     7     8    2
    13     7     9   ar
    14     9    10   ar
    15    10    11   ar
    16    11    12   ar
    17    12    13    1
    18    12    14   ar
    19    14    15   ar
    20    15    16   ar
    21    20    21    1
    22    21    22    1
    23    21    23    1
    24    21    24    1
    25    16     1   ar
    26     9     3    1
    27    16    10   ar
    28    18    19    1
    29     2    17    1
@<TRIPOS>MOLECULE
*****
 27 29 0 0 0
SMALL
GASTEIGER

@<TRIPOS>ATOM
      1 C         141.0724  141.2896  166.2829 C.ar    1  UNL1        0.1058
      2 N         142.2749  141.4161  165.3952 N.ar    1  UNL1       -0.3419
      3 C         142.5910  140.3370  164.4023 C.ar    1  UNL1        0.0637
      4 C         143.7935  140.4635  163.5146 C.ar    1  UNL1        0.0379
      5 C         144.1095  139.3845  162.5218 C.ar    1  UNL1        0.1037
      6 N         143.2231  138.1790  162.4166 N.ar    1  UNL1       -0.2062
      7 C         142.0206  138.0525  163.3042 C.ar    1  UNL1        0.2806
      8 O         141.1342  136.8471  163.1990 O.2     1  UNL1       -0.2651
      9 C         141.7046  139.1316  164.2971 C.ar    1  UNL1        0.0736
     10 C         140.5020  139.0051  165.1848 C.ar    1  UNL1        0.0109
     11 C         139.6156  137.7997  165.0796 C.ar    1  UNL1        0.0299
     12 C         138.4131  137.6732  165.9673 C.ar    1  UNL1        0.1401
     13 F         137.5266  136.4677  165.8621 F       1  UNL1       -0.2042
     14 C         138.0970  138.7522  166.9602 C.ar    1  UNL1        0.0297
     15 C         138.9834  139.9577  167.0654 C.ar    1  UNL1        0.0050
     16 C         140.1860  140.0841  166.1777 C.ar    1  UNL1        0.0298
     17 H         142.8567  142.2073  165.4643 H       1  UNL1        0.1671
     18 N         140.7563  142.3686  167.2758 N.pl3   1  UNL1       -0.3142
     19 H         140.3095  143.1945  166.9798 H       1  UNL1        0.1483
     20 C         141.1210  142.1894  168.7197 C.3     1  UNL1        0.1663
     21 C         140.2100  142.7069  169.7932 C.3     1  UNL1        0.4135
     22 F         139.2990  143.2244  170.8666 F       1  UNL1       -0.1682
     23 F         140.8119  144.0728  169.6454 F       1  UNL1       -0.1682
     24 F         139.6081  141.3409  169.9410 F       1  UNL1       -0.1682
     25 C         142.4445  139.9945  169.1448 C.3     1  UNL1        0.0020
     26 C         142.3967  141.4927  169.0901 C.3     1  UNL1        0.0264
     27 C         143.6246  142.2943  169.4060 C.3     1  UNL1        0.0020
@<TRIPOS>BOND
     1    25    26    1
     2    26    27    1
     3    26    20    1
     4    20    18    1
     5    18     1    1
     6     1     2   ar
     7     2     3   ar
     8     3     4   ar
     9     4     5   ar
    10     5     6   ar
    11     6     7   ar
    12     7     8    2
    13     7     9   ar
    14     9    10   ar
    15    10    11   ar
    16    11    12   ar
    17    12    13    1
    18    12    14   ar
    19    14    15   ar
    20    15    16   ar
    21    20    21    1
    22    21    22    1
    23    21    23    1
    24    21    24    1
    25    16     1   ar
    26     9     3    1
    27    16    10   ar
    28    18    19    1
    29     2    17    1
@<TRIPOS>MOLECULE
*****
 27 29 0 0 0
SMALL
GASTEIGER

@<TRIPOS>ATOM
      1 C         140.9879  141.3412  166.0841 C.ar    1  UNL1        0.1058
      2 N         140.7551  142.7903  165.7746 N.ar    1  UNL1       -0.3419
      3 C         139.8127  143.1803  164.6746 C.ar    1  UNL1        0.0637
      4 C         139.5799  144.6294  164.3651 C.ar    1  UNL1        0.0379
      5 C         138.6376  145.0193  163.2652 C.ar    1  UNL1        0.1037
      6 N         137.9280  143.9601  162.4748 N.ar    1  UNL1       -0.2062
      7 C         138.1608  142.5110  162.7843 C.ar    1  UNL1        0.2806
      8 O         137.4512  141.4519  161.9940 O.2     1  UNL1       -0.2651
      9 C         139.1032  142.1211  163.8843 C.ar    1  UNL1        0.0736
     10 C         139.3360  140.6719  164.1939 C.ar    1  UNL1        0.0109
     11 C         138.6265  139.6128  163.4035 C.ar    1  UNL1        0.0299
     12 C         138.8592  138.1637  163.7131 C.ar    1  UNL1        0.1401
     13 F         138.1497  137.1045  162.9227 F       1  UNL1       -0.2042
     14 C         139.8017  137.7737  164.8130 C.ar    1  UNL1        0.0297
     15 C         140.5112  138.8329  165.6034 C.ar    1  UNL1        0.0050
     16 C         140.2784  140.2820  165.2938 C.ar    1  UNL1        0.0298
     17 H         141.2209  143.4855  166.2933 H       1  UNL1        0.1671
     18 N         141.9303  140.9512  167.1841 N.pl3   1  UNL1       -0.3142
     19 H         142.5250  140.1748  167.0707 H       1  UNL1        0.1483
     20 C         141.9667  141.7442  168.4569 C.3     1  UNL1        0.1663
     21 C         143.2825  142.1690  169.0385 C.3     1  UNL1        0.4135
     22 F         144.5983  142.5939  169.6201 F       1  UNL1       -0.1682
     23 F         142.9012  141.5524  170.3516 F       1  UNL1       -0.1682
     24 F         143.6639  142.7856  167.7254 F       1  UNL1       -0.1682
     25 C         139.6929  141.0467  169.5025 C.3     1  UNL1        0.0020
     26 C         140.6874  142.1123  169.1480 C.3     1  UNL1        0.0264
     27 C         140.4025  143.5459  169.4847 C.3     1  UNL1        0.0020
@<TRIPOS>BOND
     1    25    26    1
     2    26    27    1
     3    26    20    1
     4    20    18    1
     5    18     1    1
     6     1     2   ar
     7     2     3   ar
     8     3     4   ar
     9     4     5   ar
    10     5     6   ar
    11     6     7   ar
    12     7     8    2
    13     7     9   ar
    14     9    10   ar
    15    10    11   ar
    16    11    12   ar
    17    12    13    1
    18    12    14   ar
    19    14    15   ar
    20    15    16   ar
    21    20    21    1
    22    21    22    1
    23    21    23    1
    24    21    24    1
    25    16     1   ar
    26     9     3    1
    27    16    10   ar
    28    18    19    1
    29     2    17    1
@<TRIPOS>MOLECULE
*****
 27 29 0 0 0
SMALL
GASTEIGER

@<TRIPOS>ATOM
      1 C         141.7703  140.7867  165.8640 C.ar    1  UNL1        0.1058
      2 N         142.5593  141.6102  166.8382 N.ar    1  UNL1       -0.3419
      3 C         142.0775  141.7679  168.2500 C.ar    1  UNL1        0.0637
      4 C         142.8665  142.5914  169.2242 C.ar    1  UNL1        0.0379
      5 C         142.3847  142.7490  170.6359 C.ar    1  UNL1        0.1037
      6 N         141.1138  142.0831  171.0734 N.ar    1  UNL1       -0.2062
      7 C         140.3247  141.2596  170.0991 C.ar    1  UNL1        0.2806
      8 O         139.0538  140.5937  170.5366 O.2     1  UNL1       -0.2651
      9 C         140.8066  141.1020  168.6874 C.ar    1  UNL1        0.0736
     10 C         140.0175  140.2784  167.7131 C.ar    1  UNL1        0.0109
     11 C         138.7466  139.6125  168.1506 C.ar    1  UNL1        0.0299
     12 C         137.9576  138.7890  167.1763 C.ar    1  UNL1        0.1401
     13 F         136.6867  138.1231  167.6138 F       1  UNL1       -0.2042
     14 C         138.4394  138.6314  165.7645 C.ar    1  UNL1        0.0297
     15 C         139.7103  139.2973  165.3271 C.ar    1  UNL1        0.0050
     16 C         140.4994  140.1208  166.3014 C.ar    1  UNL1        0.0298
     17 H         143.3935  142.0473  166.5511 H       1  UNL1        0.1671
     18 N         142.2521  140.6291  164.4522 N.pl3   1  UNL1       -0.3142
     19 H         141.9216  141.2335  163.7488 H       1  UNL1        0.1483
     20 C         143.2376  139.5506  164.1121 C.3     1  UNL1        0.1663
     21 C         143.8819  138.7513  165.2058 C.3     1  UNL1        0.4135
     22 F         144.5261  137.9520  166.2994 F       1  UNL1       -0.1682
     23 F         145.0939  139.6322  165.1356 F       1  UNL1       -0.1682
     24 F         142.6698  137.8704  165.2760 F       1  UNL1       -0.1682
     25 C         143.1302  137.9924  162.0360 C.3     1  UNL1        0.0020
     26 C         143.5789  139.2714  162.6784 C.3     1  UNL1        0.0264
     27 C         144.3689  140.2713  161.8871 C.3     1  UNL1        0.0020
@<TRIPOS>BOND
     1    25    26    1
     2    26    27    1
     3    26    20    1
     4    20    18    1
     5    18     1    1
     6     1     2   ar
     7     2     3   ar
     8     3     4   ar
     9     4     5   ar
    10     5     6   ar
    11     6     7   ar
    12     7     8    2
    13     7     9   ar
    14     9    10   ar
    15    10    11   ar
    16    11    12   ar
    17    12    13    1
    18    12    14   ar
    19    14    15   ar
    20    15    16   ar
    21    20    21    1
    22    21    22    1
    23    21    23    1
    24    21    24    1
    25    16     1   ar
    26     9     3    1
    27    16    10   ar
    28    18    19    1
    29     2    17    1
@<TRIPOS>MOLECULE
*****
 27 29 0 0 0
SMALL
GASTEIGER

@<TRIPOS>ATOM
      1 C         140.8291  141.4287  166.2996 C.ar    1  UNL1        0.1058
      2 N         140.9209  139.9562  166.0289 N.ar    1  UNL1       -0.3419
      3 C         140.0996  139.3423  164.9340 C.ar    1  UNL1        0.0637
      4 C         140.1915  137.8699  164.6632 C.ar    1  UNL1        0.0379
      5 C         139.3702  137.2560  163.5683 C.ar    1  UNL1        0.1037
      6 N         138.4572  138.1146  162.7443 N.ar    1  UNL1       -0.2062
      7 C         138.3654  139.5871  163.0150 C.ar    1  UNL1        0.2806
      8 O         137.4523  140.4457  162.1910 O.2     1  UNL1       -0.2651
      9 C         139.1866  140.2009  164.1099 C.ar    1  UNL1        0.0736
     10 C         139.0948  141.6735  164.3807 C.ar    1  UNL1        0.0109
     11 C         138.1818  142.5321  163.5566 C.ar    1  UNL1        0.0299
     12 C         138.0899  144.0046  163.8274 C.ar    1  UNL1        0.1401
     13 F         137.1769  144.8632  163.0033 F       1  UNL1       -0.2042
     14 C         138.9112  144.6185  164.9223 C.ar    1  UNL1        0.0297
     15 C         139.8242  143.7599  165.7464 C.ar    1  UNL1        0.0050
     16 C         139.9160  142.2873  165.4756 C.ar    1  UNL1        0.0298
     17 H         141.5202  139.3927  166.5697 H       1  UNL1        0.1671
     18 N         141.6503  142.0426  167.3945 N.pl3   1  UNL1       -0.3142
     19 H         142.5331  142.4279  167.1908 H       1  UNL1        0.1483
     20 C         141.1265  142.0695  168.7998 C.3     1  UNL1        0.1663
     21 C         141.0873  143.3615  169.5610 C.3     1  UNL1        0.4135
     22 F         141.0481  144.6534  170.3222 F       1  UNL1       -0.1682
     23 F         142.2597  142.9132  170.3823 F       1  UNL1       -0.1682
     24 F         139.9149  143.8098  168.7398 F       1  UNL1       -0.1682
     25 C         141.5966  139.6734  169.6874 C.3     1  UNL1        0.0020
     26 C         140.6419  140.8045  169.4440 C.3     1  UNL1        0.0264
     27 C         139.2027  140.6706  169.8447 C.3     1  UNL1        0.0020
@<TRIPOS>BOND
     1    25    26    1
     2    26    27    1
     3    26    20    1
     4    20    18    1
     5    18     1    1
     6     1     2   ar
     7     2     3   ar
     8     3     4   ar
     9     4     5   ar
    10     5     6   ar
    11     6     7   ar
    12     7     8    2
    13     7     9   ar
    14     9    10   ar
    15    10    11   ar
    16    11    12   ar
    17    12    13    1
    18    12    14   ar
    19    14    15   ar
    20    15    16   ar
    21    20    21    1
    22    21    22    1
    23    21    23    1
    24    21    24    1
    25    16     1   ar
    26     9     3    1
    27    16    10   ar
    28    18    19    1
    29     2    17    1
@<TRIPOS>MOLECULE
*****
 27 29 0 0 0
SMALL
GASTEIGER

@<TRIPOS>ATOM
      1 C         141.2122  141.5414  166.2891 C.ar    1  UNL1        0.1058
      2 N         140.2412  140.4261  166.0377 N.ar    1  UNL1       -0.3419
      3 C         140.5533  139.3768  165.0121 C.ar    1  UNL1        0.0637
      4 C         139.5823  138.2615  164.7607 C.ar    1  UNL1        0.0379
      5 C         139.8945  137.2123  163.7352 C.ar    1  UNL1        0.1037
      6 N         141.1776  137.2785  162.9611 N.ar    1  UNL1       -0.2062
      7 C         142.1486  138.3938  163.2125 C.ar    1  UNL1        0.2806
      8 O         143.4317  138.4599  162.4384 O.2     1  UNL1       -0.2651
      9 C         141.8364  139.4430  164.2380 C.ar    1  UNL1        0.0736
     10 C         142.8074  140.5583  164.4895 C.ar    1  UNL1        0.0109
     11 C         144.0905  140.6245  163.7154 C.ar    1  UNL1        0.0299
     12 C         145.0615  141.7398  163.9668 C.ar    1  UNL1        0.1401
     13 F         146.3446  141.8059  163.1927 F       1  UNL1       -0.2042
     14 C         144.7494  142.7890  164.9923 C.ar    1  UNL1        0.0297
     15 C         143.4663  142.7229  165.7664 C.ar    1  UNL1        0.0050
     16 C         142.4953  141.6075  165.5150 C.ar    1  UNL1        0.0298
     17 H         139.3990  140.3827  166.5458 H       1  UNL1        0.1671
     18 N         140.9000  142.5907  167.3146 N.pl3   1  UNL1       -0.3142
     19 H         140.5051  143.4486  167.0367 H       1  UNL1        0.1483
     20 C         141.1897  142.3328  168.7636 C.3     1  UNL1        0.1663
     21 C         140.2389  142.8196  169.8168 C.3     1  UNL1        0.4135
     22 F         139.2882  143.3064  170.8699 F       1  UNL1       -0.1682
     23 F         140.9962  144.1115  169.9032 F       1  UNL1       -0.1682
     24 F         139.4817  141.5277  169.7304 F       1  UNL1       -0.1682
     25 C         143.6859  142.3416  169.4839 C.3     1  UNL1        0.0020
     26 C         142.4302  141.5881  169.1595 C.3     1  UNL1        0.0264
     27 C         142.4148  140.0899  169.2309 C.3     1  UNL1        0.0020
@<TRIPOS>BOND
     1    25    26    1
     2    26    27    1
     3    26    20    1
     4    20    18    1
     5    18     1    1
     6     1     2   ar
     7     2     3   ar
     8     3     4   ar
     9     4     5   ar
    10     5     6   ar
    11     6     7   ar
    12     7     8    2
    13     7     9   ar
    14     9    10   ar
    15    10    11   ar
    16    11    12   ar
    17    12    13    1
    18    12    14   ar
    19    14    15   ar
    20    15    16   ar
    21    20    21    1
    22    21    22    1
    23    21    23    1
    24    21    24    1
    25    16     1   ar
    26     9     3    1
    27    16    10   ar
    28    18    19    1
    29     2    17    1
@<TRIPOS>MOLECULE
*****
 27 29 0 0 0
SMALL
GASTEIGER

@<TRIPOS>ATOM
      1 C         139.8018  141.1836  166.3873 C.ar    1  UNL1        0.1058
      2 N         139.6707  139.7383  166.0080 N.ar    1  UNL1       -0.3419
      3 C         139.1312  139.3627  164.6597 C.ar    1  UNL1        0.0637
      4 C         139.0000  137.9174  164.2804 C.ar    1  UNL1        0.0379
      5 C         138.4606  137.5419  162.9321 C.ar    1  UNL1        0.1037
      6 N         138.0523  138.6117  161.9631 N.ar    1  UNL1       -0.2062
      7 C         138.1835  140.0569  162.3424 C.ar    1  UNL1        0.2806
      8 O         137.7752  141.1267  161.3734 O.2     1  UNL1       -0.2651
      9 C         138.7229  140.4325  163.6907 C.ar    1  UNL1        0.0736
     10 C         138.8541  141.8778  164.0700 C.ar    1  UNL1        0.0109
     11 C         138.4459  142.9476  163.1010 C.ar    1  UNL1        0.0299
     12 C         138.5770  144.3929  163.4803 C.ar    1  UNL1        0.1401
     13 F         138.1688  145.4626  162.5113 F       1  UNL1       -0.2042
     14 C         139.1165  144.7685  164.8287 C.ar    1  UNL1        0.0297
     15 C         139.5248  143.6987  165.7977 C.ar    1  UNL1        0.0050
     16 C         139.3936  142.2534  165.4183 C.ar    1  UNL1        0.0298
     17 H         139.9386  139.0362  166.6440 H       1  UNL1        0.1671
     18 N         140.3413  141.5592  167.7357 N.pl3   1  UNL1       -0.3142
     19 H         139.7338  141.6273  168.5074 H       1  UNL1        0.1483
     20 C         141.8063  141.8311  167.9081 C.3     1  UNL1        0.1663
     21 C         142.7759  141.4227  166.8389 C.3     1  UNL1        0.4135
     22 F         143.7454  141.0143  165.7697 F       1  UNL1       -0.1682
     23 F         142.7941  140.0271  167.3885 F       1  UNL1       -0.1682
     24 F         142.7577  142.8182  166.2893 F       1  UNL1       -0.1682
     25 C         143.7194  142.3132  169.5986 C.3     1  UNL1        0.0020
     26 C         142.3019  142.5112  169.1498 C.3     1  UNL1        0.0264
     27 C         141.3799  143.3894  169.9426 C.3     1  UNL1        0.0020
@<TRIPOS>BOND
     1    25    26    1
     2    26    27    1
     3    26    20    1
     4    20    18    1
     5    18     1    1
     6     1     2   ar
     7     2     3   ar
     8     3     4   ar
     9     4     5   ar
    10     5     6   ar
    11     6     7   ar
    12     7     8    2
    13     7     9   ar
    14     9    10   ar
    15    10    11   ar
    16    11    12   ar
    17    12    13    1
    18    12    14   ar
    19    14    15   ar
    20    15    16   ar
    21    20    21    1
    22    21    22    1
    23    21    23    1
    24    21    24    1
    25    16     1   ar
    26     9     3    1
    27    16    10   ar
    28    18    19    1
    29     2    17    1
