@<TRIPOS>MOLECULE
*****
 31 35 0 0 0
SMALL
GASTEIGER

@<TRIPOS>ATOM
      1 C         141.8295  138.7647  161.5802 C.ar    1  UNL1        0.0681
      2 C         141.2536  139.4807  160.3946 C.ar    1  UNL1        0.0208
      3 C         141.6630  139.0838  159.0072 C.ar    1  UNL1        0.0384
      4 C         142.6482  137.9708  158.8054 C.ar    1  UNL1        0.1385
      5 C         143.2241  137.2548  159.9910 C.ar    1  UNL1        0.0384
      6 C         142.8147  137.6517  161.3784 C.ar    1  UNL1        0.0208
      7 C         140.1924  140.3523  167.1299 C.ar    1  UNL1        0.1564
      8 C         138.9530  139.7696  167.7418 C.ar    1  UNL1        0.0385
      9 C         138.1229  138.7901  166.9663 C.ar    1  UNL1        0.0034
     10 C         138.5322  138.3932  165.5789 C.ar    1  UNL1        0.0065
     11 C         139.7715  138.9758  164.9670 C.ar    1  UNL1        0.0772
     12 C         140.1808  138.5789  163.5796 C.ar    1  UNL1        0.2671
     13 O         139.3508  137.5993  162.8041 O.2     1  UNL1       -0.2665
     14 N         141.4202  139.1616  162.9676 N.ar    1  UNL1       -0.2626
     15 C         142.2503  140.1411  163.7431 C.ar    1  UNL1        0.1269
     16 C         143.4897  140.7238  163.1312 C.3     1  UNL1        0.0723
     17 N         141.8410  140.5380  165.1305 N.ar    1  UNL1       -0.2288
     18 C         140.6016  139.9554  165.7425 C.ar    1  UNL1        0.1210
     19 C         140.4391  142.6525  168.3123 C.3     1  UNL1        0.2525
     20 O         141.0225  141.3319  167.9054 O.3     1  UNL1       -0.4699
     21 O         143.0575  137.5739  157.4180 O.3     1  UNL1       -0.4791
     22 C         142.7099  136.2120  156.8941 C.3     1  UNL1        0.1687
     23 C         143.4384  135.0040  157.4039 C.3     1  UNL1        0.0609
     24 C         143.0908  133.6421  156.8801 C.3     1  UNL1        0.0758
     25 N         142.0147  133.4882  155.8465 N.3     1  UNL1       -0.2737
     26 C         141.2862  134.6963  155.3367 C.3     1  UNL1        0.0758
     27 C         141.6338  136.0582  155.8605 C.3     1  UNL1        0.0609
     28 C         141.6671  132.1264  155.3227 C.3     1  UNL1        0.0575
     29 C         142.1331  130.7294  155.6081 C.3     1  UNL1        0.0160
     30 C         141.1755  130.2003  154.5819 C.3     1  UNL1        0.0028
     31 C         140.7095  131.5972  154.2965 C.3     1  UNL1        0.0160
@<TRIPOS>BOND
     1    19    20    1
     2    20     7    1
     3     7     8   ar
     4     8     9   ar
     5     9    10   ar
     6    10    11   ar
     7    11    12   ar
     8    12    13    2
     9    12    14   ar
    10    14     1    1
    11     1     2   ar
    12     2     3   ar
    13     3     4   ar
    14     4    21    1
    15    21    22    1
    16    22    23    1
    17    23    24    1
    18    24    25    1
    19    25    28    1
    20    28    29    1
    21    29    30    1
    22    30    31    1
    23    25    26    1
    24    26    27    1
    25     4     5   ar
    26     5     6   ar
    27    14    15   ar
    28    15    16    1
    29    15    17   ar
    30    17    18   ar
    31    18     7   ar
    32    18    11   ar
    33     6     1   ar
    34    27    22    1
    35    31    28    1
@<TRIPOS>MOLECULE
*****
 31 35 0 0 0
SMALL
GASTEIGER

@<TRIPOS>ATOM
      1 C         142.3480  138.7942  159.6012 C.ar    1  UNL1        0.0681
      2 C         142.8508  137.7415  160.5440 C.ar    1  UNL1        0.0208
      3 C         143.6840  138.1318  161.7286 C.ar    1  UNL1        0.0384
      4 C         144.0145  139.5749  161.9704 C.ar    1  UNL1        0.1385
      5 C         143.5117  140.6276  161.0275 C.ar    1  UNL1        0.0384
      6 C         142.6785  140.2372  159.8429 C.ar    1  UNL1        0.0208
      7 C         139.0150  137.2329  154.8627 C.ar    1  UNL1        0.1564
      8 C         139.6782  136.8417  153.5754 C.ar    1  UNL1        0.0385
      9 C         141.1747  136.8407  153.4728 C.ar    1  UNL1        0.0034
     10 C         142.0079  137.2310  154.6574 C.ar    1  UNL1        0.0065
     11 C         141.3447  137.6223  155.9446 C.ar    1  UNL1        0.0772
     12 C         142.1780  138.0126  157.1293 C.ar    1  UNL1        0.2671
     13 O         143.6745  138.0116  157.0266 O.2     1  UNL1       -0.2665
     14 N         141.5148  138.4038  158.4165 N.ar    1  UNL1       -0.2626
     15 C         140.0183  138.4048  158.5191 C.ar    1  UNL1        0.1269
     16 C         139.3551  138.7961  159.8065 C.3     1  UNL1        0.0723
     17 N         139.1850  138.0145  157.3346 N.ar    1  UNL1       -0.2288
     18 C         139.8482  137.6232  156.0472 C.ar    1  UNL1        0.1210
     19 C         136.7143  138.2361  154.1915 C.3     1  UNL1        0.2525
     20 O         137.5185  137.2339  154.9653 O.3     1  UNL1       -0.4699
     21 O         144.8478  139.9652  163.1550 O.3     1  UNL1       -0.4791
     22 C         144.1929  140.5405  164.3757 C.3     1  UNL1        0.1687
     23 C         143.4367  139.6463  165.3131 C.3     1  UNL1        0.0609
     24 C         142.7819  140.2216  166.5338 C.3     1  UNL1        0.0758
     25 N         142.8832  141.6912  166.8172 N.3     1  UNL1       -0.2737
     26 C         143.6394  142.5854  165.8799 C.3     1  UNL1        0.0758
     27 C         144.2943  142.0100  164.6591 C.3     1  UNL1        0.0609
     28 C         142.2284  142.2665  168.0379 C.3     1  UNL1        0.0575
     29 C         140.8474  142.7458  168.3745 C.3     1  UNL1        0.0160
     30 C         141.3022  143.0801  169.7643 C.3     1  UNL1        0.0028
     31 C         142.6832  142.6008  169.4277 C.3     1  UNL1        0.0160
@<TRIPOS>BOND
     1    19    20    1
     2    20     7    1
     3     7     8   ar
     4     8     9   ar
     5     9    10   ar
     6    10    11   ar
     7    11    12   ar
     8    12    13    2
     9    12    14   ar
    10    14     1    1
    11     1     2   ar
    12     2     3   ar
    13     3     4   ar
    14     4    21    1
    15    21    22    1
    16    22    23    1
    17    23    24    1
    18    24    25    1
    19    25    28    1
    20    28    29    1
    21    29    30    1
    22    30    31    1
    23    25    26    1
    24    26    27    1
    25     4     5   ar
    26     5     6   ar
    27    14    15   ar
    28    15    16    1
    29    15    17   ar
    30    17    18   ar
    31    18     7   ar
    32    18    11   ar
    33     6     1   ar
    34    27    22    1
    35    31    28    1
@<TRIPOS>MOLECULE
*****
 31 35 0 0 0
SMALL
GASTEIGER

@<TRIPOS>ATOM
      1 C         140.5607  138.9601  158.6993 C.ar    1  UNL1        0.0681
      2 C         142.0345  138.6827  158.7306 C.ar    1  UNL1        0.0208
      3 C         142.6412  137.7382  157.7358 C.ar    1  UNL1        0.0384
      4 C         141.7741  137.0710  156.7096 C.ar    1  UNL1        0.1385
      5 C         140.3003  137.3484  156.6783 C.ar    1  UNL1        0.0384
      6 C         139.6936  138.2930  157.6731 C.ar    1  UNL1        0.0208
      7 C         138.1339  142.7385  162.6786 C.ar    1  UNL1        0.1564
      8 C         137.7180  142.2387  164.0303 C.ar    1  UNL1        0.0385
      9 C         137.9088  140.7943  164.3872 C.ar    1  UNL1        0.0034
     10 C         138.5155  139.8498  163.3925 C.ar    1  UNL1        0.0065
     11 C         138.9314  140.3495  162.0407 C.ar    1  UNL1        0.0772
     12 C         139.5381  139.4049  161.0459 C.ar    1  UNL1        0.2671
     13 O         139.7289  137.9606  161.4028 O.2     1  UNL1       -0.2665
     14 N         139.9540  139.9047  159.6941 N.ar    1  UNL1       -0.2626
     15 C         139.7632  141.3491  159.3372 C.ar    1  UNL1        0.1269
     16 C         140.1791  141.8489  157.9854 C.3     1  UNL1        0.0723
     17 N         139.1565  142.2937  160.3320 N.ar    1  UNL1       -0.2288
     18 C         138.7406  141.7939  161.6838 C.ar    1  UNL1        0.1210
     19 C         139.0303  145.1760  162.6073 C.3     1  UNL1        0.2525
     20 O         137.9431  144.1828  162.3216 O.3     1  UNL1       -0.4699
     21 O         142.3808  136.1264  155.7147 O.3     1  UNL1       -0.4791
     22 C         142.6474  134.7014  156.0995 C.3     1  UNL1        0.1687
     23 C         141.8197  133.5979  155.5102 C.3     1  UNL1        0.0609
     24 C         142.0864  132.1729  155.8950 C.3     1  UNL1        0.0758
     25 N         143.1808  131.8513  156.8692 N.3     1  UNL1       -0.2737
     26 C         144.0085  132.9547  157.4585 C.3     1  UNL1        0.0758
     27 C         143.7418  134.3798  157.0737 C.3     1  UNL1        0.0609
     28 C         143.4474  130.4262  157.2540 C.3     1  UNL1        0.0575
     29 C         142.9439  129.0909  156.7922 C.3     1  UNL1        0.0160
     30 C         143.8245  128.4109  157.7982 C.3     1  UNL1        0.0028
     31 C         144.3280  129.7462  158.2600 C.3     1  UNL1        0.0160
@<TRIPOS>BOND
     1    19    20    1
     2    20     7    1
     3     7     8   ar
     4     8     9   ar
     5     9    10   ar
     6    10    11   ar
     7    11    12   ar
     8    12    13    2
     9    12    14   ar
    10    14     1    1
    11     1     2   ar
    12     2     3   ar
    13     3     4   ar
    14     4    21    1
    15    21    22    1
    16    22    23    1
    17    23    24    1
    18    24    25    1
    19    25    28    1
    20    28    29    1
    21    29    30    1
    22    30    31    1
    23    25    26    1
    24    26    27    1
    25     4     5   ar
    26     5     6   ar
    27    14    15   ar
    28    15    16    1
    29    15    17   ar
    30    17    18   ar
    31    18     7   ar
    32    18    11   ar
    33     6     1   ar
    34    27    22    1
    35    31    28    1
@<TRIPOS>MOLECULE
*****
 31 35 0 0 0
SMALL
GASTEIGER

@<TRIPOS>ATOM
      1 C         138.6299  140.8529  160.1247 C.ar    1  UNL1        0.0681
      2 C         139.4967  139.6290  160.0971 C.ar    1  UNL1        0.0208
      3 C         139.5361  138.7111  161.2828 C.ar    1  UNL1        0.0384
      4 C         138.7087  139.0169  162.4959 C.ar    1  UNL1        0.1385
      5 C         137.8418  140.2408  162.5235 C.ar    1  UNL1        0.0384
      6 C         137.8025  141.1587  161.3379 C.ar    1  UNL1        0.0208
      7 C         138.4723  144.5250  155.3822 C.ar    1  UNL1        0.1564
      8 C         137.5290  144.2472  154.2496 C.ar    1  UNL1        0.0385
      9 C         136.6251  143.0513  154.3025 C.ar    1  UNL1        0.0034
     10 C         136.6645  142.1333  155.4881 C.ar    1  UNL1        0.0065
     11 C         137.6078  142.4111  156.6207 C.ar    1  UNL1        0.0772
     12 C         137.6472  141.4931  157.8064 C.ar    1  UNL1        0.2671
     13 O         136.7433  140.2972  157.8593 O.2     1  UNL1       -0.2665
     14 N         138.5905  141.7709  158.9390 N.ar    1  UNL1       -0.2626
     15 C         139.4944  142.9668  158.8861 C.ar    1  UNL1        0.1269
     16 C         140.4378  143.2446  160.0188 C.3     1  UNL1        0.0723
     17 N         139.4551  143.8848  157.7005 N.ar    1  UNL1       -0.2288
     18 C         138.5117  143.6070  156.5678 C.ar    1  UNL1        0.1210
     19 C         140.7276  145.6117  154.6876 C.3     1  UNL1        0.2525
     20 O         139.3763  145.7209  155.3293 O.3     1  UNL1       -0.4699
     21 O         138.7481  138.0989  163.6816 O.3     1  UNL1       -0.4791
     22 C         139.1091  138.6364  165.0346 C.3     1  UNL1        0.1687
     23 C         140.5060  139.1116  165.3046 C.3     1  UNL1        0.0609
     24 C         140.8670  139.6491  166.6576 C.3     1  UNL1        0.0758
     25 N         139.8311  139.7113  167.7408 N.3     1  UNL1       -0.2737
     26 C         138.4342  139.2361  167.4708 C.3     1  UNL1        0.0758
     27 C         138.0732  138.6986  166.1177 C.3     1  UNL1        0.0609
     28 C         140.1921  140.2488  169.0938 C.3     1  UNL1        0.0575
     29 C         139.6480  141.3231  169.9881 C.3     1  UNL1        0.0160
     30 C         140.7027  141.0090  171.0073 C.3     1  UNL1        0.0028
     31 C         141.2468  139.9346  170.1130 C.3     1  UNL1        0.0160
@<TRIPOS>BOND
     1    19    20    1
     2    20     7    1
     3     7     8   ar
     4     8     9   ar
     5     9    10   ar
     6    10    11   ar
     7    11    12   ar
     8    12    13    2
     9    12    14   ar
    10    14     1    1
    11     1     2   ar
    12     2     3   ar
    13     3     4   ar
    14     4    21    1
    15    21    22    1
    16    22    23    1
    17    23    24    1
    18    24    25    1
    19    25    28    1
    20    28    29    1
    21    29    30    1
    22    30    31    1
    23    25    26    1
    24    26    27    1
    25     4     5   ar
    26     5     6   ar
    27    14    15   ar
    28    15    16    1
    29    15    17   ar
    30    17    18   ar
    31    18     7   ar
    32    18    11   ar
    33     6     1   ar
    34    27    22    1
    35    31    28    1
@<TRIPOS>MOLECULE
*****
 31 35 0 0 0
SMALL
GASTEIGER

@<TRIPOS>ATOM
      1 C         140.6142  140.1257  160.0317 C.ar    1  UNL1        0.0681
      2 C         139.7497  138.9263  159.7783 C.ar    1  UNL1        0.0208
      3 C         139.8391  138.2007  158.4685 C.ar    1  UNL1        0.0384
      4 C         140.7929  138.6745  157.4122 C.ar    1  UNL1        0.1385
      5 C         141.6573  139.8738  157.6656 C.ar    1  UNL1        0.0384
      6 C         141.5680  140.5994  158.9754 C.ar    1  UNL1        0.0208
      7 C         140.2569  143.0283  165.2708 C.ar    1  UNL1        0.1564
      8 C         139.2164  144.0901  165.4705 C.ar    1  UNL1        0.0385
      9 C         138.2652  144.4262  164.3604 C.ar    1  UNL1        0.0034
     10 C         138.3545  143.7006  163.0507 C.ar    1  UNL1        0.0065
     11 C         139.3950  142.6388  162.8510 C.ar    1  UNL1        0.0772
     12 C         139.4843  141.9132  161.5412 C.ar    1  UNL1        0.2671
     13 O         138.5331  142.2493  160.4311 O.2     1  UNL1       -0.2665
     14 N         140.5248  140.8514  161.3415 N.ar    1  UNL1       -0.2626
     15 C         141.4760  140.5152  162.4515 C.ar    1  UNL1        0.1269
     16 C         142.5166  139.4533  162.2518 C.3     1  UNL1        0.0723
     17 N         141.3868  141.2408  163.7613 N.ar    1  UNL1       -0.2288
     18 C         140.3462  142.3027  163.9610 C.ar    1  UNL1        0.1210
     19 C         140.6887  142.4568  167.7681 C.3     1  UNL1        0.2525
     20 O         141.2081  142.6921  166.3808 O.3     1  UNL1       -0.4699
     21 O         140.8822  137.9488  156.1024 O.3     1  UNL1       -0.4791
     22 C         141.5963  136.6322  156.0216 C.3     1  UNL1        0.1687
     23 C         142.9256  136.4574  156.6942 C.3     1  UNL1        0.0609
     24 C         143.6397  135.1408  156.6134 C.3     1  UNL1        0.0758
     25 N         143.0244  133.9989  155.8600 N.3     1  UNL1       -0.2737
     26 C         141.6951  134.1736  155.1875 C.3     1  UNL1        0.0758
     27 C         140.9810  135.4903  155.2683 C.3     1  UNL1        0.0609
     28 C         143.7385  132.6822  155.7793 C.3     1  UNL1        0.0575
     29 C         143.6902  131.5046  154.8515 C.3     1  UNL1        0.0160
     30 C         144.7484  130.8202  155.6650 C.3     1  UNL1        0.0028
     31 C         144.7967  131.9979  156.5928 C.3     1  UNL1        0.0160
@<TRIPOS>BOND
     1    19    20    1
     2    20     7    1
     3     7     8   ar
     4     8     9   ar
     5     9    10   ar
     6    10    11   ar
     7    11    12   ar
     8    12    13    2
     9    12    14   ar
    10    14     1    1
    11     1     2   ar
    12     2     3   ar
    13     3     4   ar
    14     4    21    1
    15    21    22    1
    16    22    23    1
    17    23    24    1
    18    24    25    1
    19    25    28    1
    20    28    29    1
    21    29    30    1
    22    30    31    1
    23    25    26    1
    24    26    27    1
    25     4     5   ar
    26     5     6   ar
    27    14    15   ar
    28    15    16    1
    29    15    17   ar
    30    17    18   ar
    31    18     7   ar
    32    18    11   ar
    33     6     1   ar
    34    27    22    1
    35    31    28    1
@<TRIPOS>MOLECULE
*****
 31 35 0 0 0
SMALL
GASTEIGER

@<TRIPOS>ATOM
      1 C         139.8893  140.4781  163.9425 C.ar    1  UNL1        0.0681
      2 C         138.8115  141.0778  163.0890 C.ar    1  UNL1        0.0208
      3 C         138.9212  141.0232  161.5940 C.ar    1  UNL1        0.0384
      4 C         140.1089  140.3689  160.9526 C.ar    1  UNL1        0.1385
      5 C         141.1867  139.7692  161.8062 C.ar    1  UNL1        0.0384
      6 C         141.0769  139.8238  163.3011 C.ar    1  UNL1        0.0208
      7 C         139.4502  140.6963  169.9225 C.ar    1  UNL1        0.1564
      8 C         139.9653  141.8909  170.6692 C.ar    1  UNL1        0.0385
      9 C         140.5901  143.0310  169.9210 C.ar    1  UNL1        0.0034
     10 C         140.6999  142.9764  168.4260 C.ar    1  UNL1        0.0065
     11 C         140.1848  141.7818  167.6793 C.ar    1  UNL1        0.0772
     12 C         140.2946  141.7272  166.1843 C.ar    1  UNL1        0.2671
     13 O         140.9194  142.8673  165.4360 O.2     1  UNL1       -0.2665
     14 N         139.7795  140.5326  165.4376 N.ar    1  UNL1       -0.2626
     15 C         139.1547  139.3926  166.1858 C.ar    1  UNL1        0.1269
     16 C         138.6397  138.1979  165.4390 C.3     1  UNL1        0.0723
     17 N         139.0450  139.4471  167.6808 N.ar    1  UNL1       -0.2288
     18 C         139.5600  140.6418  168.4275 C.ar    1  UNL1        0.1210
     19 C         137.3342  139.3956  170.6842 C.3     1  UNL1        0.2525
     20 O         138.8254  139.5562  170.6707 O.3     1  UNL1       -0.4699
     21 O         140.2186  140.3143  159.4576 O.3     1  UNL1       -0.4791
     22 C         139.9826  141.5512  158.6426 C.3     1  UNL1        0.1687
     23 C         138.8310  141.6087  157.6831 C.3     1  UNL1        0.0609
     24 C         138.5949  142.8456  156.8681 C.3     1  UNL1        0.0758
     25 N         139.5104  144.0251  157.0126 N.3     1  UNL1       -0.2737
     26 C         140.6620  143.9676  157.9720 C.3     1  UNL1        0.0758
     27 C         140.8981  142.7305  158.7871 C.3     1  UNL1        0.0609
     28 C         139.2744  145.2620  156.1976 C.3     1  UNL1        0.0575
     29 C         139.9695  146.5829  156.0488 C.3     1  UNL1        0.0160
     30 C         138.9405  147.0113  155.0450 C.3     1  UNL1        0.0028
     31 C         138.2454  145.6905  155.1937 C.3     1  UNL1        0.0160
@<TRIPOS>BOND
     1    19    20    1
     2    20     7    1
     3     7     8   ar
     4     8     9   ar
     5     9    10   ar
     6    10    11   ar
     7    11    12   ar
     8    12    13    2
     9    12    14   ar
    10    14     1    1
    11     1     2   ar
    12     2     3   ar
    13     3     4   ar
    14     4    21    1
    15    21    22    1
    16    22    23    1
    17    23    24    1
    18    24    25    1
    19    25    28    1
    20    28    29    1
    21    29    30    1
    22    30    31    1
    23    25    26    1
    24    26    27    1
    25     4     5   ar
    26     5     6   ar
    27    14    15   ar
    28    15    16    1
    29    15    17   ar
    30    17    18   ar
    31    18     7   ar
    32    18    11   ar
    33     6     1   ar
    34    27    22    1
    35    31    28    1
@<TRIPOS>MOLECULE
*****
 31 35 0 0 0
SMALL
GASTEIGER

@<TRIPOS>ATOM
      1 C         141.4738  140.3001  163.3608 C.ar    1  UNL1        0.0681
      2 C         140.6220  140.9225  162.2945 C.ar    1  UNL1        0.0208
      3 C         140.7461  140.4629  160.8721 C.ar    1  UNL1        0.0384
      4 C         141.7220  139.3808  160.5160 C.ar    1  UNL1        0.1385
      5 C         142.5738  138.7585  161.5823 C.ar    1  UNL1        0.0384
      6 C         142.4497  139.2181  163.0047 C.ar    1  UNL1        0.0208
      7 C         140.9775  142.1387  169.0506 C.ar    1  UNL1        0.1564
      8 C         140.0041  141.4674  169.9735 C.ar    1  UNL1        0.0385
      9 C         139.1548  140.3364  169.4740 C.ar    1  UNL1        0.0034
     10 C         139.2788  139.8767  168.0516 C.ar    1  UNL1        0.0065
     11 C         140.2522  140.5481  167.1287 C.ar    1  UNL1        0.0772
     12 C         140.3763  140.0884  165.7062 C.ar    1  UNL1        0.2671
     13 O         139.5270  138.9575  165.2067 O.2     1  UNL1       -0.2665
     14 N         141.3497  140.7598  164.7833 N.ar    1  UNL1       -0.2626
     15 C         142.1990  141.8907  165.2828 C.ar    1  UNL1        0.1269
     16 C         143.1725  142.5621  164.3599 C.3     1  UNL1        0.0723
     17 N         142.0750  142.3504  166.7052 N.ar    1  UNL1       -0.2288
     18 C         141.1016  141.6790  167.6282 C.ar    1  UNL1        0.1210
     19 C         142.8591  143.0212  170.6097 C.3     1  UNL1        0.2525
     20 O         141.8269  143.2697  169.5501 O.3     1  UNL1       -0.4699
     21 O         141.8461  138.9212  159.0935 O.3     1  UNL1       -0.4791
     22 C         142.9141  139.4951  158.2104 C.3     1  UNL1        0.1687
     23 C         143.1598  138.9079  156.8521 C.3     1  UNL1        0.0609
     24 C         144.2278  139.4818  155.9690 C.3     1  UNL1        0.0758
     25 N         145.0502  140.6428  156.4441 N.3     1  UNL1       -0.2737
     26 C         144.8045  141.2300  157.8023 C.3     1  UNL1        0.0758
     27 C         143.7364  140.6561  158.6855 C.3     1  UNL1        0.0609
     28 C         146.1182  141.2167  155.5609 C.3     1  UNL1        0.0575
     29 C         146.3506  141.2780  154.0803 C.3     1  UNL1        0.0160
     30 C         147.6286  142.0283  154.3119 C.3     1  UNL1        0.0028
     31 C         147.3963  141.9669  155.7926 C.3     1  UNL1        0.0160
@<TRIPOS>BOND
     1    19    20    1
     2    20     7    1
     3     7     8   ar
     4     8     9   ar
     5     9    10   ar
     6    10    11   ar
     7    11    12   ar
     8    12    13    2
     9    12    14   ar
    10    14     1    1
    11     1     2   ar
    12     2     3   ar
    13     3     4   ar
    14     4    21    1
    15    21    22    1
    16    22    23    1
    17    23    24    1
    18    24    25    1
    19    25    28    1
    20    28    29    1
    21    29    30    1
    22    30    31    1
    23    25    26    1
    24    26    27    1
    25     4     5   ar
    26     5     6   ar
    27    14    15   ar
    28    15    16    1
    29    15    17   ar
    30    17    18   ar
    31    18     7   ar
    32    18    11   ar
    33     6     1   ar
    34    27    22    1
    35    31    28    1
@<TRIPOS>MOLECULE
*****
 31 35 0 0 0
SMALL
GASTEIGER

@<TRIPOS>ATOM
      1 C         140.6373  140.3073  162.8186 C.ar    1  UNL1        0.0681
      2 C         141.4865  141.2050  161.9685 C.ar    1  UNL1        0.0208
      3 C         141.4627  141.0665  160.4752 C.ar    1  UNL1        0.0384
      4 C         140.5896  140.0301  159.8319 C.ar    1  UNL1        0.1385
      5 C         139.7404  139.1324  160.6820 C.ar    1  UNL1        0.0384
      6 C         139.7643  139.2709  162.1754 C.ar    1  UNL1        0.0208
      7 C         140.7325  140.8615  168.7923 C.ar    1  UNL1        0.1564
      8 C         141.7598  140.1228  169.5977 C.ar    1  UNL1        0.0385
      9 C         142.7634  139.2455  168.9098 C.ar    1  UNL1        0.0034
     10 C         142.7396  139.1070  167.4165 C.ar    1  UNL1        0.0065
     11 C         141.7123  139.8457  166.6110 C.ar    1  UNL1        0.0772
     12 C         141.6885  139.7071  165.1176 C.ar    1  UNL1        0.2671
     13 O         142.6921  138.8299  164.4297 O.2     1  UNL1       -0.2665
     14 N         140.6611  140.4458  164.3121 N.ar    1  UNL1       -0.2626
     15 C         139.6575  141.3231  165.0000 C.ar    1  UNL1        0.1269
     16 C         138.6301  142.0618  164.1945 C.3     1  UNL1        0.0723
     17 N         139.6813  141.4616  166.4934 N.ar    1  UNL1       -0.2288
     18 C         140.7087  140.7229  167.2989 C.ar    1  UNL1        0.1210
     19 C         140.1184  142.5010  170.7119 C.3     1  UNL1        0.2525
     20 O         139.7289  141.7388  169.4802 O.3     1  UNL1       -0.4699
     21 O         140.5658  139.8916  158.3385 O.3     1  UNL1       -0.4791
     22 C         140.9889  138.6029  157.6980 C.3     1  UNL1        0.1687
     23 C         140.0985  137.9385  156.6902 C.3     1  UNL1        0.0609
     24 C         140.5216  136.6498  156.0496 C.3     1  UNL1        0.0758
     25 N         141.8352  136.0255  156.4169 N.3     1  UNL1       -0.2737
     26 C         142.7256  136.6900  157.4247 C.3     1  UNL1        0.0758
     27 C         142.3024  137.9787  158.0653 C.3     1  UNL1        0.0609
     28 C         142.2583  134.7369  155.7764 C.3     1  UNL1        0.0575
     29 C         143.5731  134.0636  155.5156 C.3     1  UNL1        0.0160
     30 C         142.8566  132.9144  154.8706 C.3     1  UNL1        0.0028
     31 C         141.5418  133.5877  155.1314 C.3     1  UNL1        0.0160
@<TRIPOS>BOND
     1    19    20    1
     2    20     7    1
     3     7     8   ar
     4     8     9   ar
     5     9    10   ar
     6    10    11   ar
     7    11    12   ar
     8    12    13    2
     9    12    14   ar
    10    14     1    1
    11     1     2   ar
    12     2     3   ar
    13     3     4   ar
    14     4    21    1
    15    21    22    1
    16    22    23    1
    17    23    24    1
    18    24    25    1
    19    25    28    1
    20    28    29    1
    21    29    30    1
    22    30    31    1
    23    25    26    1
    24    26    27    1
    25     4     5   ar
    26     5     6   ar
    27    14    15   ar
    28    15    16    1
    29    15    17   ar
    30    17    18   ar
    31    18     7   ar
    32    18    11   ar
    33     6     1   ar
    34    27    22    1
    35    31    28    1
@<TRIPOS>MOLECULE
*****
 31 35 0 0 0
SMALL
GASTEIGER

@<TRIPOS>ATOM
      1 C         139.4089  139.6044  159.9255 C.ar    1  UNL1        0.0681
      2 C         140.8697  139.7173  160.2465 C.ar    1  UNL1        0.0208
      3 C         141.4235  139.0448  161.4675 C.ar    1  UNL1        0.0384
      4 C         140.5163  138.2593  162.3676 C.ar    1  UNL1        0.1385
      5 C         139.0555  138.1463  162.0466 C.ar    1  UNL1        0.0384
      6 C         138.5017  138.8189  160.8256 C.ar    1  UNL1        0.0208
      7 C         137.1937  142.2946  155.0413 C.ar    1  UNL1        0.1564
      8 C         137.1693  141.5666  153.7300 C.ar    1  UNL1        0.0385
      9 C         137.6986  140.1660  153.6398 C.ar    1  UNL1        0.0034
     10 C         138.2524  139.4935  154.8608 C.ar    1  UNL1        0.0065
     11 C         138.2769  140.2215  156.1721 C.ar    1  UNL1        0.0772
     12 C         138.8307  139.5489  157.3932 C.ar    1  UNL1        0.2671
     13 O         139.3600  138.1483  157.3030 O.2     1  UNL1       -0.2665
     14 N         138.8551  140.2769  158.7044 N.ar    1  UNL1       -0.2626
     15 C         138.3257  141.6775  158.7946 C.ar    1  UNL1        0.1269
     16 C         138.3502  142.4055  160.1059 C.3     1  UNL1        0.0723
     17 N         137.7719  142.3501  157.5736 N.ar    1  UNL1       -0.2288
     18 C         137.7475  141.6221  156.2623 C.ar    1  UNL1        0.1210
     19 C         137.5813  144.8598  154.9015 C.3     1  UNL1        0.2525
     20 O         136.6643  143.6952  155.1315 O.3     1  UNL1       -0.4699
     21 O         141.0701  137.5867  163.5887 O.3     1  UNL1       -0.4791
     22 C         141.4935  138.4079  164.7703 C.3     1  UNL1        0.1687
     23 C         140.6054  139.5049  165.2782 C.3     1  UNL1        0.0609
     24 C         141.0288  140.3262  166.4598 C.3     1  UNL1        0.0758
     25 N         142.3403  140.0504  167.1337 N.3     1  UNL1       -0.2737
     26 C         143.2284  138.9534  166.6258 C.3     1  UNL1        0.0758
     27 C         142.8050  138.1322  165.4441 C.3     1  UNL1        0.0609
     28 C         142.7637  140.8716  168.3153 C.3     1  UNL1        0.0575
     29 C         143.2341  142.2822  168.5128 C.3     1  UNL1        0.0160
     30 C         143.3625  142.0331  169.9864 C.3     1  UNL1        0.0028
     31 C         142.8921  140.6225  169.7889 C.3     1  UNL1        0.0160
@<TRIPOS>BOND
     1    19    20    1
     2    20     7    1
     3     7     8   ar
     4     8     9   ar
     5     9    10   ar
     6    10    11   ar
     7    11    12   ar
     8    12    13    2
     9    12    14   ar
    10    14     1    1
    11     1     2   ar
    12     2     3   ar
    13     3     4   ar
    14     4    21    1
    15    21    22    1
    16    22    23    1
    17    23    24    1
    18    24    25    1
    19    25    28    1
    20    28    29    1
    21    29    30    1
    22    30    31    1
    23    25    26    1
    24    26    27    1
    25     4     5   ar
    26     5     6   ar
    27    14    15   ar
    28    15    16    1
    29    15    17   ar
    30    17    18   ar
    31    18     7   ar
    32    18    11   ar
    33     6     1   ar
    34    27    22    1
    35    31    28    1
