@<TRIPOS>MOLECULE
*****
 32 35 0 0 0
SMALL
GASTEIGER

@<TRIPOS>ATOM
      1 C         138.6868  140.3599  165.8200 C.ar    1  UNL1        0.1578
      2 N         139.5591  141.4462  166.3758 N.ar    1  UNL1       -0.1539
      3 N         139.9959  141.0324  167.7499 N.ar    1  UNL1       -0.2465
      4 C         139.3935  139.6903  168.0432 C.ar    1  UNL1        0.1025
      5 C         138.5845  139.2747  166.8504 C.ar    1  UNL1        0.1051
      6 C         140.8798  141.8220  168.6692 C.3     1  UNL1        0.1488
      7 C         140.3805  143.1000  169.2754 C.3     1  UNL1        0.1674
      8 O         141.2644  143.8897  170.1947 O.3     1  UNL1       -0.3516
      9 C         142.6477  143.4013  170.5079 C.3     1  UNL1        0.1434
     10 C         143.1470  142.1233  169.9017 C.3     1  UNL1        0.0492
     11 C         142.2631  141.3337  168.9824 C.3     1  UNL1        0.1187
     12 C         142.7624  140.0557  168.3762 C.1     1  UNL1        0.0742
     13 N         143.2617  138.7778  167.7700 N.1     1  UNL1       -0.1958
     14 C         137.8093  137.9980  166.7124 C.2     1  UNL1        0.2470
     15 N         136.7898  137.6240  167.7472 N.am    1  UNL1       -0.3252
     16 O         138.0535  137.0954  165.5395 O.2     1  UNL1       -0.2702
     17 H         136.6295  138.2164  168.5170 H       1  UNL1        0.1453
     18 H         136.2810  136.7860  167.6566 H       1  UNL1        0.1453
     19 N         138.0318  140.3590  164.4705 N.pl3   1  UNL1       -0.2964
     20 H         137.0979  140.6558  164.3765 H       1  UNL1        0.1537
     21 C         140.3359  138.9996  160.8521 C.ar    1  UNL1        0.0031
     22 C         139.0111  138.3751  161.1758 C.ar    1  UNL1        0.0014
     23 C         138.2430  138.8283  162.3820 C.ar    1  UNL1        0.0146
     24 C         138.7998  139.9059  163.2644 C.ar    1  UNL1        0.0494
     25 C         140.1247  140.5304  162.9407 C.ar    1  UNL1        0.0146
     26 C         140.8928  140.0772  161.7345 C.ar    1  UNL1        0.0014
     27 C         141.5409  137.5370  155.9236 C.3     1  UNL1        0.1538
     28 N         141.6578  137.8742  157.3805 N.ar    1  UNL1       -0.2473
     29 C         140.5393  138.3206  158.2747 C.ar    1  UNL1        0.0967
     30 C         141.1039  138.5464  159.6459 C.ar    1  UNL1        0.0396
     31 C         142.5714  138.2395  159.5991 C.ar    1  UNL1        0.1216
     32 N         142.9137  137.8240  158.1991 N.ar    1  UNL1       -0.1676
@<TRIPOS>BOND
     1    27    28    1
     2    28    29   ar
     3    29    30   ar
     4    30    21    1
     5    21    22   ar
     6    22    23   ar
     7    23    24   ar
     8    24    19    1
     9    19     1    1
    10     1     2   ar
    11     2     3   ar
    12     6     3    1
    13     6     7    1
    14     7     8    1
    15     8     9    1
    16     9    10    1
    17    10    11    1
    18    11    12    1
    19    12    13    3
    20     3     4   ar
    21     4     5   ar
    22     5    14    1
    23    14    15   am
    24    14    16    2
    25    24    25   ar
    26    25    26   ar
    27    30    31   ar
    28    31    32   ar
    29    32    28   ar
    30    26    21   ar
    31     5     1   ar
    32    11     6    1
    33    19    20    1
    34    15    17    1
    35    15    18    1
@<TRIPOS>MOLECULE
*****
 32 35 0 0 0
SMALL
GASTEIGER

@<TRIPOS>ATOM
      1 C         141.3569  144.3056  163.9461 C.ar    1  UNL1        0.1578
      2 N         141.6859  143.4917  165.1623 N.ar    1  UNL1       -0.1539
      3 N         140.3957  143.0712  165.8016 N.ar    1  UNL1       -0.2465
      4 C         139.2693  143.6254  164.9804 C.ar    1  UNL1        0.1025
      5 C         139.8634  144.3883  163.8337 C.ar    1  UNL1        0.1051
      6 C         140.2563  142.2422  167.0439 C.3     1  UNL1        0.1488
      7 C         140.5735  142.8387  168.3831 C.3     1  UNL1        0.1674
      8 O         140.4342  142.0097  169.6255 O.3     1  UNL1       -0.3516
      9 C         139.9776  140.5841  169.5285 C.3     1  UNL1        0.1434
     10 C         139.6604  139.9876  168.1893 C.3     1  UNL1        0.0492
     11 C         139.7997  140.8167  166.9470 C.3     1  UNL1        0.1187
     12 C         139.4825  140.2202  165.6077 C.1     1  UNL1        0.0742
     13 N         139.1653  139.6238  164.2685 N.1     1  UNL1       -0.1958
     14 C         139.0982  145.1075  162.7626 C.2     1  UNL1        0.2470
     15 N         137.6971  144.6871  162.4309 N.am    1  UNL1       -0.3252
     16 O         139.7343  146.2471  162.0232 O.2     1  UNL1       -0.2702
     17 H         137.2796  143.9392  162.9162 H       1  UNL1        0.1453
     18 H         137.1949  145.1592  161.7279 H       1  UNL1        0.1453
     19 N         142.3475  144.9278  163.0072 N.pl3   1  UNL1       -0.2964
     20 H         142.6495  145.8534  163.1527 H       1  UNL1        0.1537
     21 C         143.9390  142.5631  159.5250 C.ar    1  UNL1        0.0031
     22 C         144.7257  142.6430  160.7996 C.ar    1  UNL1        0.0014
     23 C         144.1952  143.4312  161.9603 C.ar    1  UNL1        0.0146
     24 C         142.8780  144.1395  161.8465 C.ar    1  UNL1        0.0494
     25 C         142.0912  144.0597  160.5718 C.ar    1  UNL1        0.0146
     26 C         142.6217  143.2715  159.4111 C.ar    1  UNL1        0.0014
     27 C         146.6598  141.1851  155.2147 C.3     1  UNL1        0.1538
     28 N         145.7201  141.1415  156.3830 N.ar    1  UNL1       -0.2473
     29 C         145.4840  142.2493  157.3664 C.ar    1  UNL1        0.0967
     30 C         144.4695  141.7749  158.3643 C.ar    1  UNL1        0.0396
     31 C         144.0787  140.3739  157.9976 C.ar    1  UNL1        0.1216
     32 N         144.8516  139.9824  156.7731 N.ar    1  UNL1       -0.1676
@<TRIPOS>BOND
     1    27    28    1
     2    28    29   ar
     3    29    30   ar
     4    30    21    1
     5    21    22   ar
     6    22    23   ar
     7    23    24   ar
     8    24    19    1
     9    19     1    1
    10     1     2   ar
    11     2     3   ar
    12     6     3    1
    13     6     7    1
    14     7     8    1
    15     8     9    1
    16     9    10    1
    17    10    11    1
    18    11    12    1
    19    12    13    3
    20     3     4   ar
    21     4     5   ar
    22     5    14    1
    23    14    15   am
    24    14    16    2
    25    24    25   ar
    26    25    26   ar
    27    30    31   ar
    28    31    32   ar
    29    32    28   ar
    30    26    21   ar
    31     5     1   ar
    32    11     6    1
    33    19    20    1
    34    15    17    1
    35    15    18    1
@<TRIPOS>MOLECULE
*****
 32 35 0 0 0
SMALL
GASTEIGER

@<TRIPOS>ATOM
      1 C         138.5893  140.3388  165.8926 C.ar    1  UNL1        0.1578
      2 N         139.4857  141.4202  166.4190 N.ar    1  UNL1       -0.1539
      3 N         139.9968  140.9864  167.7609 N.ar    1  UNL1       -0.2465
      4 C         139.4162  139.6368  168.0638 C.ar    1  UNL1        0.1025
      5 C         138.5464  139.2366  166.9092 C.ar    1  UNL1        0.1051
      6 C         140.9253  141.7653  168.6446 C.3     1  UNL1        0.1488
      7 C         140.4492  143.0226  169.3098 C.3     1  UNL1        0.1674
      8 O         141.3777  143.8016  170.1935 O.3     1  UNL1       -0.3516
      9 C         142.7825  143.3232  170.4122 C.3     1  UNL1        0.1434
     10 C         143.2587  142.0658  169.7470 C.3     1  UNL1        0.0492
     11 C         142.3301  141.2869  168.8633 C.3     1  UNL1        0.1187
     12 C         142.8062  140.0296  168.1981 C.1     1  UNL1        0.0742
     13 N         143.2824  138.7723  167.5330 N.1     1  UNL1       -0.1958
     14 C         137.7699  137.9586  166.7917 C.2     1  UNL1        0.2470
     15 N         136.7029  137.6344  167.7949 N.am    1  UNL1       -0.3252
     16 O         138.0605  137.0048  165.6711 O.2     1  UNL1       -0.2702
     17 H         136.5122  138.2604  168.5304 H       1  UNL1        0.1453
     18 H         136.1933  136.7956  167.7178 H       1  UNL1        0.1453
     19 N         137.8633  140.3565  164.5802 N.pl3   1  UNL1       -0.2964
     20 H         137.0634  139.7970  164.4525 H       1  UNL1        0.1537
     21 C         139.3417  142.9670  161.2261 C.ar    1  UNL1        0.0031
     22 C         139.8886  141.5805  161.3942 C.ar    1  UNL1        0.0014
     23 C         139.3958  140.7103  162.5123 C.ar    1  UNL1        0.0146
     24 C         138.3561  141.2267  163.4622 C.ar    1  UNL1        0.0494
     25 C         137.8092  142.6133  163.2941 C.ar    1  UNL1        0.0146
     26 C         138.3020  143.4835  162.1761 C.ar    1  UNL1        0.0014
     27 C         140.4541  144.7883  156.3964 C.3     1  UNL1        0.1538
     28 N         140.3458  144.6744  157.8881 N.ar    1  UNL1       -0.2473
     29 C         139.7245  143.5366  158.6427 C.ar    1  UNL1        0.0967
     30 C         139.8345  143.8372  160.1081 C.ar    1  UNL1        0.0396
     31 C         140.5238  145.1608  160.2592 C.ar    1  UNL1        0.1216
     32 N         140.8398  145.6782  158.8872 N.ar    1  UNL1       -0.1676
@<TRIPOS>BOND
     1    27    28    1
     2    28    29   ar
     3    29    30   ar
     4    30    21    1
     5    21    22   ar
     6    22    23   ar
     7    23    24   ar
     8    24    19    1
     9    19     1    1
    10     1     2   ar
    11     2     3   ar
    12     6     3    1
    13     6     7    1
    14     7     8    1
    15     8     9    1
    16     9    10    1
    17    10    11    1
    18    11    12    1
    19    12    13    3
    20     3     4   ar
    21     4     5   ar
    22     5    14    1
    23    14    15   am
    24    14    16    2
    25    24    25   ar
    26    25    26   ar
    27    30    31   ar
    28    31    32   ar
    29    32    28   ar
    30    26    21   ar
    31     5     1   ar
    32    11     6    1
    33    19    20    1
    34    15    17    1
    35    15    18    1
@<TRIPOS>MOLECULE
*****
 32 35 0 0 0
SMALL
GASTEIGER

@<TRIPOS>ATOM
      1 C         143.3472  142.5727  164.8040 C.ar    1  UNL1        0.1578
      2 N         142.3385  142.6468  165.9117 N.ar    1  UNL1       -0.1539
      3 N         142.2750  141.3012  166.5715 N.ar    1  UNL1       -0.2465
      4 C         143.2445  140.3955  165.8716 C.ar    1  UNL1        0.1025
      5 C         143.9071  141.1813  164.7792 C.ar    1  UNL1        0.1051
      6 C         141.3963  140.9270  167.7282 C.3     1  UNL1        0.1488
      7 C         140.1206  140.1753  167.4886 C.3     1  UNL1        0.1674
      8 O         139.2419  139.8011  168.6452 O.3     1  UNL1       -0.3516
      9 C         139.6389  140.1787  170.0416 C.3     1  UNL1        0.1434
     10 C         140.9147  140.9304  170.2812 C.3     1  UNL1        0.0492
     11 C         141.7933  141.3046  169.1245 C.3     1  UNL1        0.1187
     12 C         143.0691  142.0563  169.3642 C.1     1  UNL1        0.0742
     13 N         144.3447  142.8080  169.6038 N.1     1  UNL1       -0.1958
     14 C         144.9471  140.6662  163.8289 C.2     1  UNL1        0.2470
     15 N         144.9247  139.2292  163.3994 N.am    1  UNL1       -0.3252
     16 O         146.0095  141.5881  163.3080 O.2     1  UNL1       -0.2702
     17 H         144.2274  138.6241  163.7413 H       1  UNL1        0.1453
     18 H         145.6072  138.8911  162.7757 H       1  UNL1        0.1453
     19 N         143.7290  143.6932  163.8828 N.pl3   1  UNL1       -0.2964
     20 H         144.4754  144.2907  164.1174 H       1  UNL1        0.1537
     21 C         141.4622  144.3239  160.0469 C.ar    1  UNL1        0.0031
     22 C         141.0160  145.0109  161.3034 C.ar    1  UNL1        0.0014
     23 C         141.7715  144.8007  162.5820 C.ar    1  UNL1        0.0146
     24 C         142.9734  143.9035  162.6041 C.ar    1  UNL1        0.0494
     25 C         143.4197  143.2164  161.3476 C.ar    1  UNL1        0.0146
     26 C         142.6641  143.4266  160.0689 C.ar    1  UNL1        0.0014
     27 C         139.4946  146.5575  155.6856 C.3     1  UNL1        0.1538
     28 N         139.8022  145.5608  156.7636 N.ar    1  UNL1       -0.2473
     29 C         140.6804  145.7954  157.9568 C.ar    1  UNL1        0.0967
     30 C         140.7066  144.5341  158.7682 C.ar    1  UNL1        0.0396
     31 C         139.8446  143.5200  158.0766 C.ar    1  UNL1        0.1216
     32 N         139.2856  144.1545  156.8376 N.ar    1  UNL1       -0.1676
@<TRIPOS>BOND
     1    27    28    1
     2    28    29   ar
     3    29    30   ar
     4    30    21    1
     5    21    22   ar
     6    22    23   ar
     7    23    24   ar
     8    24    19    1
     9    19     1    1
    10     1     2   ar
    11     2     3   ar
    12     6     3    1
    13     6     7    1
    14     7     8    1
    15     8     9    1
    16     9    10    1
    17    10    11    1
    18    11    12    1
    19    12    13    3
    20     3     4   ar
    21     4     5   ar
    22     5    14    1
    23    14    15   am
    24    14    16    2
    25    24    25   ar
    26    25    26   ar
    27    30    31   ar
    28    31    32   ar
    29    32    28   ar
    30    26    21   ar
    31     5     1   ar
    32    11     6    1
    33    19    20    1
    34    15    17    1
    35    15    18    1
@<TRIPOS>MOLECULE
*****
 32 35 0 0 0
SMALL
GASTEIGER

@<TRIPOS>ATOM
      1 C         139.1031  140.2949  165.4065 C.ar    1  UNL1        0.1578
      2 N         139.5437  141.3012  166.4279 N.ar    1  UNL1       -0.1539
      3 N         140.7568  140.7564  167.1219 N.ar    1  UNL1       -0.2465
      4 C         141.0658  139.4134  166.5295 C.ar    1  UNL1        0.1025
      5 C         140.0438  139.1282  165.4693 C.ar    1  UNL1        0.1051
      6 C         141.5258  141.4354  168.2163 C.3     1  UNL1        0.1488
      7 C         142.8240  142.1203  167.9071 C.3     1  UNL1        0.1674
      8 O         143.5931  142.7993  169.0014 O.3     1  UNL1       -0.3516
      9 C         143.0638  142.7934  170.4050 C.3     1  UNL1        0.1434
     10 C         141.7656  142.1085  170.7142 C.3     1  UNL1        0.0492
     11 C         140.9966  141.4295  169.6198 C.3     1  UNL1        0.1187
     12 C         139.6984  140.7446  169.9290 C.1     1  UNL1        0.0742
     13 N         138.4003  140.0596  170.2381 N.1     1  UNL1       -0.1958
     14 C         139.9746  137.8932  164.6209 C.2     1  UNL1        0.2470
     15 N         141.1880  137.0267  164.4572 N.am    1  UNL1       -0.3252
     16 O         138.6919  137.5246  163.9361 O.2     1  UNL1       -0.2702
     17 H         142.0298  137.2686  164.9067 H       1  UNL1        0.1453
     18 H         141.1426  136.2161  163.9004 H       1  UNL1        0.1453
     19 N         137.9280  140.4314  164.4843 N.pl3   1  UNL1       -0.2964
     20 H         137.0340  140.1444  164.7803 H       1  UNL1        0.1537
     21 C         138.4891  142.1527  160.3645 C.ar    1  UNL1        0.0031
     22 C         138.7408  143.0039  161.5736 C.ar    1  UNL1        0.0014
     23 C         138.5538  142.4301  162.9469 C.ar    1  UNL1        0.0146
     24 C         138.1150  141.0052  163.1110 C.ar    1  UNL1        0.0494
     25 C         137.8633  140.1539  161.9018 C.ar    1  UNL1        0.0146
     26 C         138.0503  140.7276  160.5286 C.ar    1  UNL1        0.0014
     27 C         137.8963  143.1418  155.2117 C.3     1  UNL1        0.1538
     28 N         138.4036  143.1811  156.6228 N.ar    1  UNL1       -0.2473
     29 C         137.8795  142.3708  157.7711 C.ar    1  UNL1        0.0967
     30 C         138.6761  142.7264  158.9912 C.ar    1  UNL1        0.0396
     31 C         139.6926  143.7566  158.5970 C.ar    1  UNL1        0.1216
     32 N         139.5242  144.0376  157.1332 N.ar    1  UNL1       -0.1676
@<TRIPOS>BOND
     1    27    28    1
     2    28    29   ar
     3    29    30   ar
     4    30    21    1
     5    21    22   ar
     6    22    23   ar
     7    23    24   ar
     8    24    19    1
     9    19     1    1
    10     1     2   ar
    11     2     3   ar
    12     6     3    1
    13     6     7    1
    14     7     8    1
    15     8     9    1
    16     9    10    1
    17    10    11    1
    18    11    12    1
    19    12    13    3
    20     3     4   ar
    21     4     5   ar
    22     5    14    1
    23    14    15   am
    24    14    16    2
    25    24    25   ar
    26    25    26   ar
    27    30    31   ar
    28    31    32   ar
    29    32    28   ar
    30    26    21   ar
    31     5     1   ar
    32    11     6    1
    33    19    20    1
    34    15    17    1
    35    15    18    1
@<TRIPOS>MOLECULE
*****
 32 35 0 0 0
SMALL
GASTEIGER

@<TRIPOS>ATOM
      1 C         138.2201  141.4530  164.5610 C.ar    1  UNL1        0.1578
      2 N         138.7158  140.4501  165.5603 N.ar    1  UNL1       -0.1539
      3 N         139.6396  141.1570  166.5073 N.ar    1  UNL1       -0.2465
      4 C         139.7149  142.5968  166.0933 C.ar    1  UNL1        0.1025
      5 C         138.8376  142.7797  164.8905 C.ar    1  UNL1        0.1051
      6 C         140.3615  140.5335  167.6650 C.3     1  UNL1        0.1488
      7 C         139.6309  140.2635  168.9469 C.3     1  UNL1        0.1674
      8 O         140.3527  139.6401  170.1047 O.3     1  UNL1       -0.3516
      9 C         141.8052  139.2866  169.9804 C.3     1  UNL1        0.1434
     10 C         142.5358  139.5566  168.6985 C.3     1  UNL1        0.0492
     11 C         141.8139  140.1801  167.5408 C.3     1  UNL1        0.1187
     12 C         142.5445  140.4501  166.2588 C.1     1  UNL1        0.0742
     13 N         143.2751  140.7201  164.9770 N.1     1  UNL1       -0.1958
     14 C         138.6165  144.0639  164.1476 C.2     1  UNL1        0.2470
     15 N         139.5855  145.1980  164.3052 N.am    1  UNL1       -0.3252
     16 O         137.4264  144.2140  163.2470 O.2     1  UNL1       -0.2702
     17 H         140.3667  145.0994  164.8963 H       1  UNL1        0.1453
     18 H         139.4404  146.0408  163.8176 H       1  UNL1        0.1453
     19 N         137.2732  141.1775  163.4308 N.pl3   1  UNL1       -0.2964
     20 H         136.3046  141.2980  163.5596 H       1  UNL1        0.1537
     21 C         138.8595  139.8001  159.4513 C.ar    1  UNL1        0.0031
     22 C         138.6048  138.8033  160.5429 C.ar    1  UNL1        0.0014
     23 C         138.0760  139.2625  161.8694 C.ar    1  UNL1        0.0146
     24 C         137.8020  140.7184  162.1043 C.ar    1  UNL1        0.0494
     25 C         138.0568  141.7152  161.0128 C.ar    1  UNL1        0.0146
     26 C         138.5855  141.2561  159.6863 C.ar    1  UNL1        0.0014
     27 C         140.8382  136.7611  155.6133 C.3     1  UNL1        0.1538
     28 N         140.2978  137.9441  156.3607 N.ar    1  UNL1       -0.2473
     29 C         139.8541  137.9542  157.7935 C.ar    1  UNL1        0.0967
     30 C         139.3883  139.3410  158.1248 C.ar    1  UNL1        0.0396
     31 C         139.5442  140.1880  156.8968 C.ar    1  UNL1        0.1216
     32 N         140.1063  139.3247  155.8064 N.ar    1  UNL1       -0.1676
@<TRIPOS>BOND
     1    27    28    1
     2    28    29   ar
     3    29    30   ar
     4    30    21    1
     5    21    22   ar
     6    22    23   ar
     7    23    24   ar
     8    24    19    1
     9    19     1    1
    10     1     2   ar
    11     2     3   ar
    12     6     3    1
    13     6     7    1
    14     7     8    1
    15     8     9    1
    16     9    10    1
    17    10    11    1
    18    11    12    1
    19    12    13    3
    20     3     4   ar
    21     4     5   ar
    22     5    14    1
    23    14    15   am
    24    14    16    2
    25    24    25   ar
    26    25    26   ar
    27    30    31   ar
    28    31    32   ar
    29    32    28   ar
    30    26    21   ar
    31     5     1   ar
    32    11     6    1
    33    19    20    1
    34    15    17    1
    35    15    18    1
@<TRIPOS>MOLECULE
*****
 32 35 0 0 0
SMALL
GASTEIGER

@<TRIPOS>ATOM
      1 C         138.8819  139.6908  159.1132 C.ar    1  UNL1        0.1578
      2 N         139.3954  138.3992  158.5494 N.ar    1  UNL1       -0.1539
      3 N         140.5738  138.7109  157.6752 N.ar    1  UNL1       -0.2465
      4 C         140.7886  140.1954  157.6987 C.ar    1  UNL1        0.1025
      5 C         139.7429  140.8009  158.5875 C.ar    1  UNL1        0.1051
      6 C         141.3935  137.7135  156.9116 C.3     1  UNL1        0.1488
      7 C         142.8425  137.5193  157.2473 C.3     1  UNL1        0.1674
      8 O         143.6623  136.5219  156.4837 O.3     1  UNL1       -0.3516
      9 C         143.0329  135.7185  155.3842 C.3     1  UNL1        0.1434
     10 C         141.5839  135.9127  155.0485 C.3     1  UNL1        0.0492
     11 C         140.7642  136.9101  155.8122 C.3     1  UNL1        0.1187
     12 C         139.3152  137.1043  155.4765 C.1     1  UNL1        0.0742
     13 N         137.8663  137.2983  155.1408 N.1     1  UNL1       -0.1958
     14 C         139.5859  142.2604  158.8963 C.2     1  UNL1        0.2470
     15 N         140.7658  143.1805  158.7908 N.am    1  UNL1       -0.3252
     16 O         138.2489  142.7997  159.3105 O.2     1  UNL1       -0.2702
     17 H         141.6433  142.8265  158.5188 H       1  UNL1        0.1453
     18 H         140.6627  144.1384  158.9934 H       1  UNL1        0.1453
     19 N         137.7127  139.8453  160.0400 N.pl3   1  UNL1       -0.2964
     20 H         136.8072  139.9685  159.6738 H       1  UNL1        0.1537
     21 C         138.3437  139.7454  164.4944 C.ar    1  UNL1        0.0031
     22 C         137.7908  140.9780  163.8427 C.ar    1  UNL1        0.0014
     23 C         137.5804  141.0113  162.3579 C.ar    1  UNL1        0.0146
     24 C         137.9230  139.8120  161.5248 C.ar    1  UNL1        0.0494
     25 C         138.4760  138.5792  162.1765 C.ar    1  UNL1        0.0146
     26 C         138.6864  138.5459  163.6613 C.ar    1  UNL1        0.0014
     27 C         140.2627  140.7132  169.3174 C.3     1  UNL1        0.1538
     28 N         139.4362  140.1569  168.1961 N.ar    1  UNL1       -0.2473
     29 C         139.5812  140.4952  166.7420 C.ar    1  UNL1        0.0967
     30 C         138.5541  139.7121  165.9792 C.ar    1  UNL1        0.0396
     31 C         137.7744  138.8898  166.9619 C.ar    1  UNL1        0.1216
     32 N         138.3195  139.1647  168.3321 N.ar    1  UNL1       -0.1676
@<TRIPOS>BOND
     1    27    28    1
     2    28    29   ar
     3    29    30   ar
     4    30    21    1
     5    21    22   ar
     6    22    23   ar
     7    23    24   ar
     8    24    19    1
     9    19     1    1
    10     1     2   ar
    11     2     3   ar
    12     6     3    1
    13     6     7    1
    14     7     8    1
    15     8     9    1
    16     9    10    1
    17    10    11    1
    18    11    12    1
    19    12    13    3
    20     3     4   ar
    21     4     5   ar
    22     5    14    1
    23    14    15   am
    24    14    16    2
    25    24    25   ar
    26    25    26   ar
    27    30    31   ar
    28    31    32   ar
    29    32    28   ar
    30    26    21   ar
    31     5     1   ar
    32    11     6    1
    33    19    20    1
    34    15    17    1
    35    15    18    1
@<TRIPOS>MOLECULE
*****
 32 35 0 0 0
SMALL
GASTEIGER

@<TRIPOS>ATOM
      1 C         138.7035  139.0551  161.5161 C.ar    1  UNL1        0.1578
      2 N         139.4276  138.0868  160.6284 N.ar    1  UNL1       -0.1539
      3 N         139.8352  138.8158  159.3825 N.ar    1  UNL1       -0.2465
      4 C         139.3630  140.2348  159.5002 C.ar    1  UNL1        0.1025
      5 C         138.6636  140.3826  160.8189 C.ar    1  UNL1        0.1051
      6 C         140.5836  138.2290  158.2225 C.3     1  UNL1        0.1488
      7 C         139.8348  137.7260  157.0240 C.3     1  UNL1        0.1674
      8 O         140.5831  137.1391  155.8640 O.3     1  UNL1       -0.3516
      9 C         142.0804  137.0554  155.9024 C.3     1  UNL1        0.1434
     10 C         142.8291  137.5585  157.1009 C.3     1  UNL1        0.0492
     11 C         142.0807  138.1453  158.2609 C.3     1  UNL1        0.1187
     12 C         142.8295  138.6484  159.4593 C.1     1  UNL1        0.0742
     13 N         143.5783  139.1515  160.6577 N.1     1  UNL1       -0.1958
     14 C         138.0347  141.6376  161.3475 C.2     1  UNL1        0.2470
     15 N         138.3521  142.9598  160.7141 N.am    1  UNL1       -0.3252
     16 O         137.0885  141.5704  162.5094 O.2     1  UNL1       -0.2702
     17 H         138.9731  143.0039  159.9515 H       1  UNL1        0.1453
     18 H         137.9393  143.7835  161.0611 H       1  UNL1        0.1453
     19 N         138.1215  138.7495  162.8644 N.pl3   1  UNL1       -0.2964
     20 H         137.2276  138.3429  162.9340 H       1  UNL1        0.1537
     21 C         140.4613  139.6916  166.5911 C.ar    1  UNL1        0.0031
     22 C         138.9618  139.6834  166.6289 C.ar    1  UNL1        0.0014
     23 C         138.1819  139.3694  165.3867 C.ar    1  UNL1        0.0146
     24 C         138.9014  139.0635  164.1066 C.ar    1  UNL1        0.0494
     25 C         140.4010  139.0717  164.0687 C.ar    1  UNL1        0.0146
     26 C         141.1809  139.3857  165.3109 C.ar    1  UNL1        0.0014
     27 C         141.7930  141.5613  171.3462 C.3     1  UNL1        0.1538
     28 N         141.8534  140.8650  170.0190 N.ar    1  UNL1       -0.2473
     29 C         140.7482  140.7989  169.0070 C.ar    1  UNL1        0.0967
     30 C         141.2412  140.0056  167.8333 C.ar    1  UNL1        0.0396
     31 C         142.6512  139.5814  168.1200 C.ar    1  UNL1        0.1216
     32 N         143.0295  140.1125  169.4708 N.ar    1  UNL1       -0.1676
@<TRIPOS>BOND
     1    27    28    1
     2    28    29   ar
     3    29    30   ar
     4    30    21    1
     5    21    22   ar
     6    22    23   ar
     7    23    24   ar
     8    24    19    1
     9    19     1    1
    10     1     2   ar
    11     2     3   ar
    12     6     3    1
    13     6     7    1
    14     7     8    1
    15     8     9    1
    16     9    10    1
    17    10    11    1
    18    11    12    1
    19    12    13    3
    20     3     4   ar
    21     4     5   ar
    22     5    14    1
    23    14    15   am
    24    14    16    2
    25    24    25   ar
    26    25    26   ar
    27    30    31   ar
    28    31    32   ar
    29    32    28   ar
    30    26    21   ar
    31     5     1   ar
    32    11     6    1
    33    19    20    1
    34    15    17    1
    35    15    18    1
@<TRIPOS>MOLECULE
*****
 32 35 0 0 0
SMALL
GASTEIGER

@<TRIPOS>ATOM
      1 C         141.6539  143.5219  164.9566 C.ar    1  UNL1        0.1578
      2 N         142.4657  142.7837  165.9793 N.ar    1  UNL1       -0.1539
      3 N         141.5190  142.0392  166.8733 N.ar    1  UNL1       -0.2465
      4 C         140.1219  142.3173  166.4031 C.ar    1  UNL1        0.1025
      5 C         140.2053  143.2337  165.2186 C.ar    1  UNL1        0.1051
      6 C         141.9020  141.1693  168.0337 C.3     1  UNL1        0.1488
      7 C         142.5537  139.8401  167.7918 C.3     1  UNL1        0.1674
      8 O         142.9367  138.9702  168.9522 O.3     1  UNL1       -0.3516
      9 C         142.6679  139.4295  170.3547 C.3     1  UNL1        0.1434
     10 C         142.0162  140.7586  170.5966 C.3     1  UNL1        0.0492
     11 C         141.6332  141.6285  169.4362 C.3     1  UNL1        0.1187
     12 C         140.9815  142.9577  169.6781 C.1     1  UNL1        0.0742
     13 N         140.3297  144.2868  169.9201 N.1     1  UNL1       -0.1958
     14 C         139.0441  143.7680  164.4337 C.2     1  UNL1        0.2470
     15 N         137.7426  143.0224  164.4185 N.am    1  UNL1       -0.3252
     16 O         139.1843  145.0478  163.6642 O.2     1  UNL1       -0.2702
     17 H         137.6505  142.1824  164.9236 H       1  UNL1        0.1453
     18 H         136.9804  143.3731  163.9034 H       1  UNL1        0.1453
     19 N         142.1955  144.3951  163.8638 N.pl3   1  UNL1       -0.2964
     20 H         142.1837  145.3743  163.9648 H       1  UNL1        0.1537
     21 C         143.8743  142.5387  160.1241 C.ar    1  UNL1        0.0031
     22 C         142.5158  143.1743  160.1013 C.ar    1  UNL1        0.0014
     23 C         141.9562  143.7931  161.3478 C.ar    1  UNL1        0.0146
     24 C         142.7551  143.7763  162.6172 C.ar    1  UNL1        0.0494
     25 C         144.1137  143.1408  162.6401 C.ar    1  UNL1        0.0146
     26 C         144.6733  142.5220  161.3935 C.ar    1  UNL1        0.0014
     27 C         146.6430  141.8058  155.6881 C.3     1  UNL1        0.1538
     28 N         145.7065  141.5831  156.8385 N.ar    1  UNL1       -0.2473
     29 C         145.4286  142.5518  157.9494 C.ar    1  UNL1        0.0967
     30 C         144.4339  141.9200  158.8775 C.ar    1  UNL1        0.0396
     31 C         144.0970  140.5607  158.3401 C.ar    1  UNL1        0.1216
     32 N         144.8836  140.3524  157.0799 N.ar    1  UNL1       -0.1676
@<TRIPOS>BOND
     1    27    28    1
     2    28    29   ar
     3    29    30   ar
     4    30    21    1
     5    21    22   ar
     6    22    23   ar
     7    23    24   ar
     8    24    19    1
     9    19     1    1
    10     1     2   ar
    11     2     3   ar
    12     6     3    1
    13     6     7    1
    14     7     8    1
    15     8     9    1
    16     9    10    1
    17    10    11    1
    18    11    12    1
    19    12    13    3
    20     3     4   ar
    21     4     5   ar
    22     5    14    1
    23    14    15   am
    24    14    16    2
    25    24    25   ar
    26    25    26   ar
    27    30    31   ar
    28    31    32   ar
    29    32    28   ar
    30    26    21   ar
    31     5     1   ar
    32    11     6    1
    33    19    20    1
    34    15    17    1
    35    15    18    1
