@<TRIPOS>MOLECULE
*****
 42 48 0 0 0
SMALL
GASTEIGER

@<TRIPOS>ATOM
      1 C         141.9676  142.2424  160.4094 C.3     1  UNL1        0.1354
      2 N         141.5465  142.9160  159.1370 N.3     1  UNL1       -0.2823
      3 C         140.5203  144.0094  159.1714 C.3     1  UNL1        0.1166
      4 C         139.9150  144.4292  160.4781 C.3     1  UNL1        0.0511
      5 C         140.3360  143.7556  161.7504 C.2     1  UNL1       -0.0038
      6 C         141.3623  142.6622  161.7161 C.2     1  UNL1        0.0768
      7 N         141.5782  142.1849  163.1217 N.2     1  UNL1       -0.2520
      8 C         140.6855  142.9834  164.0247 C.2     1  UNL1        0.0627
      9 C         140.4724  142.9519  165.5091 C.3     1  UNL1        0.0717
     10 C         139.4916  143.8912  166.1460 C.2     1  UNL1       -0.0198
     11 C         138.7239  144.8619  165.2986 C.2     1  UNL1       -0.0042
     12 C         138.9369  144.8934  163.8141 C.2     1  UNL1        0.0006
     13 C         139.9177  143.9541  163.1772 C.2     1  UNL1        0.0111
     14 H         141.1797  142.1869  158.5253 H       1  UNL1        0.1245
     15 C         145.6027  141.1398  156.7419 C.3     1  UNL1        0.1537
     16 N         144.4930  140.9921  157.7403 N.ar    1  UNL1       -0.2476
     17 C         143.9003  142.0931  158.5689 C.ar    1  UNL1        0.0944
     18 C         142.8221  141.4990  159.4260 C.ar    1  UNL1        0.0407
     19 C         142.7485  140.0309  159.1271 C.ar    1  UNL1        0.1193
     20 N         143.7812  139.7176  158.0852 N.ar    1  UNL1       -0.1679
     21 C         142.6853  141.3105  161.3403 C.ar    1  UNL1        0.0811
     22 C         141.9854  140.0947  161.8713 C.ar    1  UNL1        0.0179
     23 C         142.7031  139.1629  162.8022 C.ar    1  UNL1        0.0168
     24 C         144.1207  139.4469  163.2021 C.ar    1  UNL1        0.0218
     25 C         144.8206  140.6627  162.6711 C.ar    1  UNL1        0.0986
     26 N         144.1028  141.5945  161.7401 N.ar    1  UNL1       -0.2462
     27 C         142.0034  137.9471  163.3333 C.2     1  UNL1        0.0730
     28 O         142.1090  137.5964  164.7879 O.co2   1  UNL1       -0.5446
     29 O         141.1980  137.0819  162.4098 O.co2   1  UNL1       -0.5446
     30 C         140.0992  144.6831  157.8989 C.ar    1  UNL1        0.1318
     31 N         140.1316  146.1584  157.6301 N.ar    1  UNL1       -0.2298
     32 C         139.6243  146.3869  156.2370 C.ar    1  UNL1        0.0996
     33 C         139.2784  145.0528  155.6451 C.ar    1  UNL1        0.0927
     34 N         139.5719  143.9998  156.6722 N.ar    1  UNL1       -0.3386
     35 H         139.4414  143.0303  156.5607 H       1  UNL1        0.1672
     36 C         139.4869  147.7162  155.5556 C.ar    1  UNL1        0.0193
     37 C         138.7465  148.8322  156.2310 C.ar    1  UNL1        0.0039
     38 C         138.6091  150.1614  155.5497 C.ar    1  UNL1        0.0297
     39 C         139.2123  150.3746  154.1930 C.ar    1  UNL1        0.1401
     40 F         139.0749  151.7039  153.5116 F       1  UNL1       -0.2042
     41 C         139.9527  149.2586  153.5176 C.ar    1  UNL1        0.0297
     42 C         140.0901  147.9294  154.1989 C.ar    1  UNL1        0.0039
@<TRIPOS>UNITY_ATOM_ATTR
28 1
charge -1
@<TRIPOS>BOND
     1    15    16    1
     2    16    17   ar
     3    17    18   ar
     4     1    18    1
     5     1    21    1
     6    21    22   ar
     7    22    23   ar
     8    23    27    1
     9    27    28   ar
    10    27    29   ar
    11    23    24   ar
    12    24    25   ar
    13    25    26   ar
    14     1     2    1
    15     2     3    1
    16     3    30    1
    17    30    31   ar
    18    31    32   ar
    19    32    36    1
    20    36    37   ar
    21    37    38   ar
    22    38    39   ar
    23    39    40    1
    24    39    41   ar
    25    41    42   ar
    26    32    33   ar
    27    33    34   ar
    28     3     4    1
    29     4     5    1
    30     5     6    2
    31     6     7    1
    32     7     8    2
    33     8     9    1
    34     9    10    1
    35    10    11    2
    36    11    12    1
    37    12    13    2
    38    18    19   ar
    39    19    20   ar
    40    20    16   ar
    41     6     1    1
    42    13     8    1
    43    26    21   ar
    44    34    30   ar
    45    13     5    1
    46    42    36   ar
    47     2    14    1
    48    34    35    1
@<TRIPOS>MOLECULE
*****
 42 48 0 0 0
SMALL
GASTEIGER

@<TRIPOS>ATOM
      1 C         142.3868  141.7354  160.9963 C.3     1  UNL1        0.1354
      2 N         142.5228  140.8577  159.7875 N.3     1  UNL1       -0.2823
      3 C         142.7841  139.3898  159.9522 C.3     1  UNL1        0.1166
      4 C         142.9095  138.7998  161.3255 C.3     1  UNL1        0.0511
      5 C         142.7736  139.6775  162.5343 C.2     1  UNL1       -0.0038
      6 C         142.5122  141.1453  162.3696 C.2     1  UNL1        0.0768
      7 N         142.4256  141.7569  163.7366 N.2     1  UNL1       -0.2520
      8 C         142.6335  140.6670  164.7460 C.2     1  UNL1        0.0627
      9 C         142.6547  140.6788  166.2458 C.3     1  UNL1        0.0717
     10 C         142.8910  139.4054  167.0025 C.2     1  UNL1       -0.0198
     11 C         143.1061  138.1203  166.2594 C.2     1  UNL1       -0.0042
     12 C         143.0848  138.1085  164.7596 C.2     1  UNL1        0.0006
     13 C         142.8485  139.3819  164.0029 C.2     1  UNL1        0.0111
     14 H         143.2936  141.2339  159.2356 H       1  UNL1        0.1245
     15 C         140.1148  145.0672  157.5876 C.3     1  UNL1        0.1537
     16 N         141.1462  144.2846  158.3452 N.ar    1  UNL1       -0.2476
     17 C         140.8741  143.2952  159.4394 C.ar    1  UNL1        0.0944
     18 C         142.1905  142.7531  159.9120 C.ar    1  UNL1        0.0407
     19 C         143.2761  143.4074  159.1098 C.ar    1  UNL1        0.1193
     20 N         142.6307  144.3538  158.1415 N.ar    1  UNL1       -0.1679
     21 C         142.1826  142.9666  161.8285 C.ar    1  UNL1        0.0811
     22 C         140.8056  143.3375  162.2937 C.ar    1  UNL1        0.0179
     23 C         140.6014  144.5686  163.1259 C.ar    1  UNL1        0.0168
     24 C         141.7741  145.4289  163.4928 C.ar    1  UNL1        0.0218
     25 C         143.1511  145.0581  163.0276 C.ar    1  UNL1        0.0986
     26 N         143.3553  143.8268  162.1954 N.ar    1  UNL1       -0.2462
     27 C         139.2245  144.9396  163.5912 C.2     1  UNL1        0.0730
     28 O         138.9520  145.1251  165.0546 O.co2   1  UNL1       -0.5446
     29 O         138.1202  145.1250  162.5933 O.co2   1  UNL1       -0.5446
     30 C         142.9201  138.5120  158.7434 C.ar    1  UNL1        0.1318
     31 N         142.5886  137.0508  158.6733 N.ar    1  UNL1       -0.2298
     32 C         142.8751  136.5770  157.2792 C.ar    1  UNL1        0.0996
     33 C         143.3836  137.7454  156.4878 C.ar    1  UNL1        0.0927
     34 N         143.4114  138.9413  157.3928 N.ar    1  UNL1       -0.3386
     35 H         143.7013  139.8487  157.1439 H       1  UNL1        0.1672
     36 C         142.6862  135.1800  156.7665 C.ar    1  UNL1        0.0193
     37 C         143.4144  134.0390  157.4129 C.ar    1  UNL1        0.0039
     38 C         143.2256  132.6420  156.9002 C.ar    1  UNL1        0.0297
     39 C         142.3085  132.3861  155.7412 C.ar    1  UNL1        0.1401
     40 F         142.1196  130.9891  155.2285 F       1  UNL1       -0.2042
     41 C         141.5803  133.5271  155.0948 C.ar    1  UNL1        0.0297
     42 C         141.7691  134.9240  155.6074 C.ar    1  UNL1        0.0039
@<TRIPOS>UNITY_ATOM_ATTR
28 1
charge -1
@<TRIPOS>BOND
     1    15    16    1
     2    16    17   ar
     3    17    18   ar
     4     1    18    1
     5     1    21    1
     6    21    22   ar
     7    22    23   ar
     8    23    27    1
     9    27    28   ar
    10    27    29   ar
    11    23    24   ar
    12    24    25   ar
    13    25    26   ar
    14     1     2    1
    15     2     3    1
    16     3    30    1
    17    30    31   ar
    18    31    32   ar
    19    32    36    1
    20    36    37   ar
    21    37    38   ar
    22    38    39   ar
    23    39    40    1
    24    39    41   ar
    25    41    42   ar
    26    32    33   ar
    27    33    34   ar
    28     3     4    1
    29     4     5    1
    30     5     6    2
    31     6     7    1
    32     7     8    2
    33     8     9    1
    34     9    10    1
    35    10    11    2
    36    11    12    1
    37    12    13    2
    38    18    19   ar
    39    19    20   ar
    40    20    16   ar
    41     6     1    1
    42    13     8    1
    43    26    21   ar
    44    34    30   ar
    45    13     5    1
    46    42    36   ar
    47     2    14    1
    48    34    35    1
@<TRIPOS>MOLECULE
*****
 42 48 0 0 0
SMALL
GASTEIGER

@<TRIPOS>ATOM
      1 C         141.6101  141.6856  160.1770 C.3     1  UNL1        0.1354
      2 N         141.3270  142.4185  158.8992 N.3     1  UNL1       -0.2823
      3 C         140.5080  143.6750  158.9210 C.3     1  UNL1        0.1166
      4 C         139.9722  144.1986  160.2205 C.3     1  UNL1        0.0511
      5 C         140.2553  143.4658  161.4983 C.2     1  UNL1       -0.0038
      6 C         141.0743  142.2093  161.4765 C.2     1  UNL1        0.0768
      7 N         141.1886  141.7061  162.8850 N.2     1  UNL1       -0.2520
      8 C         140.4403  142.6516  163.7772 C.2     1  UNL1        0.0627
      9 C         140.2096  142.6628  165.2593 C.3     1  UNL1        0.0717
     10 C         139.4021  143.7615  165.8843 C.2     1  UNL1       -0.0198
     11 C         138.8253  144.8491  165.0273 C.2     1  UNL1       -0.0042
     12 C         139.0560  144.8379  163.5452 C.2     1  UNL1        0.0006
     13 C         139.8635  143.7392  162.9201 C.2     1  UNL1        0.0111
     14 H         140.8443  141.7630  158.2846 H       1  UNL1        0.1245
     15 C         142.6132  138.0041  156.5272 C.3     1  UNL1        0.1537
     16 N         142.7924  139.1085  157.5263 N.ar    1  UNL1       -0.2476
     17 C         141.7055  139.7458  158.3404 C.ar    1  UNL1        0.0944
     18 C         142.3312  140.8007  159.2039 C.ar    1  UNL1        0.0407
     19 C         143.8048  140.8154  158.9235 C.ar    1  UNL1        0.1193
     20 N         144.0897  139.7695  157.8867 N.ar    1  UNL1       -0.1679
     21 C         142.1437  140.6454  161.1169 C.ar    1  UNL1        0.0811
     22 C         143.3826  140.9217  161.9161 C.ar    1  UNL1        0.0179
     23 C         143.9162  139.8815  162.8560 C.ar    1  UNL1        0.0168
     24 C         143.2109  138.5652  162.9966 C.ar    1  UNL1        0.0218
     25 C         141.9720  138.2889  162.1974 C.ar    1  UNL1        0.0986
     26 N         141.4384  139.3291  161.2575 N.ar    1  UNL1       -0.2462
     27 C         145.1551  140.1577  163.6553 C.2     1  UNL1        0.0730
     28 O         145.5607  139.2237  164.7567 O.co2   1  UNL1       -0.5446
     29 O         145.9883  141.3678  163.3532 O.co2   1  UNL1       -0.5446
     30 C         140.2249  144.4080  157.6432 C.ar    1  UNL1        0.1318
     31 N         140.1047  145.8950  157.4879 N.ar    1  UNL1       -0.2298
     32 C         139.8178  146.1887  156.0451 C.ar    1  UNL1        0.0996
     33 C         139.7606  144.8831  155.3089 C.ar    1  UNL1        0.0927
     34 N         140.0122  143.7825  156.2965 N.ar    1  UNL1       -0.3386
     35 H         140.0340  142.8189  156.0961 H       1  UNL1        0.1672
     36 C         139.6223  147.5491  155.4442 C.ar    1  UNL1        0.0193
     37 C         138.8257  148.5862  156.1790 C.ar    1  UNL1        0.0039
     38 C         138.6302  149.9465  155.5782 C.ar    1  UNL1        0.0297
     39 C         139.2313  150.2699  154.2425 C.ar    1  UNL1        0.1401
     40 F         139.0358  151.6303  153.6416 F       1  UNL1       -0.2042
     41 C         140.0279  149.2328  153.5077 C.ar    1  UNL1        0.0297
     42 C         140.2234  147.8725  154.1085 C.ar    1  UNL1        0.0039
@<TRIPOS>UNITY_ATOM_ATTR
28 1
charge -1
@<TRIPOS>BOND
     1    15    16    1
     2    16    17   ar
     3    17    18   ar
     4     1    18    1
     5     1    21    1
     6    21    22   ar
     7    22    23   ar
     8    23    27    1
     9    27    28   ar
    10    27    29   ar
    11    23    24   ar
    12    24    25   ar
    13    25    26   ar
    14     1     2    1
    15     2     3    1
    16     3    30    1
    17    30    31   ar
    18    31    32   ar
    19    32    36    1
    20    36    37   ar
    21    37    38   ar
    22    38    39   ar
    23    39    40    1
    24    39    41   ar
    25    41    42   ar
    26    32    33   ar
    27    33    34   ar
    28     3     4    1
    29     4     5    1
    30     5     6    2
    31     6     7    1
    32     7     8    2
    33     8     9    1
    34     9    10    1
    35    10    11    2
    36    11    12    1
    37    12    13    2
    38    18    19   ar
    39    19    20   ar
    40    20    16   ar
    41     6     1    1
    42    13     8    1
    43    26    21   ar
    44    34    30   ar
    45    13     5    1
    46    42    36   ar
    47     2    14    1
    48    34    35    1
@<TRIPOS>MOLECULE
*****
 42 48 0 0 0
SMALL
GASTEIGER

@<TRIPOS>ATOM
      1 C         141.3273  141.2679  159.5949 C.3     1  UNL1        0.1354
      2 N         140.6951  142.1319  158.5442 N.3     1  UNL1       -0.2823
      3 C         140.7139  143.6247  158.6898 C.3     1  UNL1        0.1166
      4 C         141.3649  144.2535  159.8860 C.3     1  UNL1        0.0511
      5 C         141.9971  143.3895  160.9366 C.2     1  UNL1       -0.0038
      6 C         141.9783  141.8967  160.7910 C.2     1  UNL1        0.0768
      7 N         142.6771  141.3063  161.9798 N.2     1  UNL1       -0.2520
      8 C         143.1277  142.4342  162.8600 C.2     1  UNL1        0.0627
      9 C         143.8665  142.4552  164.1653 C.3     1  UNL1        0.0717
     10 C         144.1849  143.7637  164.8258 C.2     1  UNL1       -0.0198
     11 C         143.7647  145.0512  164.1811 C.2     1  UNL1       -0.0042
     12 C         143.0259  145.0302  162.8758 C.2     1  UNL1        0.0006
     13 C         142.7075  143.7217  162.2153 C.2     1  UNL1        0.0111
     14 H         139.7154  141.8541  158.4849 H       1  UNL1        0.1245
     15 C         141.1548  137.6808  155.7239 C.3     1  UNL1        0.1537
     16 N         140.7574  138.5628  156.8703 N.ar    1  UNL1       -0.2476
     17 C         141.6417  139.5530  157.5687 C.ar    1  UNL1        0.0944
     18 C         140.8367  140.2116  158.6496 C.ar    1  UNL1        0.0407
     19 C         139.4550  139.6284  158.6193 C.ar    1  UNL1        0.1193
     20 N         139.4060  138.6094  157.5196 N.ar    1  UNL1       -0.1679
     21 C         141.7892  140.0371  160.3173 C.ar    1  UNL1        0.0811
     22 C         140.8958  139.3813  161.3281 C.ar    1  UNL1        0.0179
     23 C         141.3576  138.1504  162.0506 C.ar    1  UNL1        0.0168
     24 C         142.7127  137.5755  161.7621 C.ar    1  UNL1        0.0218
     25 C         143.6060  138.2313  160.7513 C.ar    1  UNL1        0.0986
     26 N         143.1442  139.4622  160.0288 N.ar    1  UNL1       -0.2462
     27 C         140.4643  137.4945  163.0614 C.2     1  UNL1        0.0730
     28 O         141.0591  136.8186  164.2612 O.co2   1  UNL1       -0.5446
     29 O         138.9764  137.5145  162.8726 O.co2   1  UNL1       -0.5446
     30 C         140.0817  144.4887  157.6391 C.ar    1  UNL1        0.1318
     31 N         140.1816  145.9826  157.5489 N.ar    1  UNL1       -0.2298
     32 C         139.4003  146.4278  156.3483 C.ar    1  UNL1        0.0996
     33 C         138.8175  145.2089  155.6965 C.ar    1  UNL1        0.0927
     34 N         139.2387  144.0105  156.4943 N.ar    1  UNL1       -0.3386
     35 H         139.0031  143.0745  156.3006 H       1  UNL1        0.1672
     36 C         139.2314  147.8433  155.8814 C.ar    1  UNL1        0.0193
     37 C         138.5203  148.8393  156.7488 C.ar    1  UNL1        0.0039
     38 C         138.3514  150.2547  156.2820 C.ar    1  UNL1        0.0297
     39 C         138.8936  150.6742  154.9479 C.ar    1  UNL1        0.1401
     40 F         138.7247  152.0897  154.4810 F       1  UNL1       -0.2042
     41 C         139.6046  149.6782  154.0805 C.ar    1  UNL1        0.0297
     42 C         139.7735  148.2627  154.5473 C.ar    1  UNL1        0.0039
@<TRIPOS>UNITY_ATOM_ATTR
28 1
charge -1
@<TRIPOS>BOND
     1    15    16    1
     2    16    17   ar
     3    17    18   ar
     4     1    18    1
     5     1    21    1
     6    21    22   ar
     7    22    23   ar
     8    23    27    1
     9    27    28   ar
    10    27    29   ar
    11    23    24   ar
    12    24    25   ar
    13    25    26   ar
    14     1     2    1
    15     2     3    1
    16     3    30    1
    17    30    31   ar
    18    31    32   ar
    19    32    36    1
    20    36    37   ar
    21    37    38   ar
    22    38    39   ar
    23    39    40    1
    24    39    41   ar
    25    41    42   ar
    26    32    33   ar
    27    33    34   ar
    28     3     4    1
    29     4     5    1
    30     5     6    2
    31     6     7    1
    32     7     8    2
    33     8     9    1
    34     9    10    1
    35    10    11    2
    36    11    12    1
    37    12    13    2
    38    18    19   ar
    39    19    20   ar
    40    20    16   ar
    41     6     1    1
    42    13     8    1
    43    26    21   ar
    44    34    30   ar
    45    13     5    1
    46    42    36   ar
    47     2    14    1
    48    34    35    1
@<TRIPOS>MOLECULE
*****
 42 48 0 0 0
SMALL
GASTEIGER

@<TRIPOS>ATOM
      1 C         141.8694  141.0837  160.6353 C.3     1  UNL1        0.1354
      2 N         142.2197  140.1712  159.4975 N.3     1  UNL1       -0.2823
      3 C         141.8773  138.7127  159.5731 C.3     1  UNL1        0.1166
      4 C         141.1845  138.1668  160.7864 C.3     1  UNL1        0.0511
      5 C         140.8342  139.0794  161.9241 C.2     1  UNL1       -0.0038
      6 C         141.1766  140.5378  161.8486 C.2     1  UNL1        0.0768
      7 N         140.7096  141.1898  163.1162 N.2     1  UNL1       -0.2520
      8 C         140.0786  140.1344  163.9752 C.2     1  UNL1        0.0627
      9 C         139.4439  140.1925  165.3330 C.3     1  UNL1        0.0717
     10 C         138.8861  138.9463  165.9540 C.2     1  UNL1       -0.0198
     11 C         138.9631  137.6419  165.2173 C.2     1  UNL1       -0.0042
     12 C         139.5978  137.5838  163.8595 C.2     1  UNL1        0.0006
     13 C         140.1556  138.8300  163.2384 C.2     1  UNL1        0.0111
     14 H         143.2304  140.2303  159.3731 H       1  UNL1        0.1245
     15 C         142.5728  144.8824  157.0358 C.3     1  UNL1        0.1537
     16 N         142.8422  143.8109  158.0504 N.ar    1  UNL1       -0.2476
     17 C         141.8066  143.0237  158.7975 C.ar    1  UNL1        0.0944
     18 C         142.5188  142.0648  159.7049 C.ar    1  UNL1        0.0407
     19 C         143.9944  142.2594  159.5186 C.ar    1  UNL1        0.1193
     20 N         144.1943  143.3385  158.4961 N.ar    1  UNL1       -0.1679
     21 C         141.7445  142.3370  161.4500 C.ar    1  UNL1        0.0811
     22 C         140.5056  143.1766  161.3492 C.ar    1  UNL1        0.0179
     23 C         140.3807  144.4299  162.1639 C.ar    1  UNL1        0.0168
     24 C         141.4947  144.8435  163.0792 C.ar    1  UNL1        0.0218
     25 C         142.7336  144.0040  163.1800 C.ar    1  UNL1        0.0986
     26 N         142.8585  142.7507  162.3653 N.ar    1  UNL1       -0.2462
     27 C         139.1418  145.2696  162.0632 C.2     1  UNL1        0.0730
     28 O         137.8453  144.7635  162.6228 O.co2   1  UNL1       -0.5446
     29 O         139.1993  146.6152  161.4030 O.co2   1  UNL1       -0.5446
     30 C         142.2277  137.8001  158.4353 C.ar    1  UNL1        0.1318
     31 N         142.7556  136.4014  158.5575 N.ar    1  UNL1       -0.2298
     32 C         142.9658  135.8628  157.1734 C.ar    1  UNL1        0.0996
     33 C         142.5678  136.9286  156.1958 C.ar    1  UNL1        0.0927
     34 N         142.1116  138.1260  156.9758 N.ar    1  UNL1       -0.3386
     35 H         141.7921  138.9763  156.5963 H       1  UNL1        0.1672
     36 C         143.4833  134.4980  156.8275 C.ar    1  UNL1        0.0193
     37 C         144.2549  133.7089  157.8433 C.ar    1  UNL1        0.0039
     38 C         144.7724  132.3441  157.4976 C.ar    1  UNL1        0.0297
     39 C         144.5181  131.7684  156.1360 C.ar    1  UNL1        0.1401
     40 F         145.0355  130.4036  155.7902 F       1  UNL1       -0.2042
     41 C         143.7464  132.5575  155.1202 C.ar    1  UNL1        0.0297
     42 C         143.2290  133.9223  155.4660 C.ar    1  UNL1        0.0039
@<TRIPOS>UNITY_ATOM_ATTR
28 1
charge -1
@<TRIPOS>BOND
     1    15    16    1
     2    16    17   ar
     3    17    18   ar
     4     1    18    1
     5     1    21    1
     6    21    22   ar
     7    22    23   ar
     8    23    27    1
     9    27    28   ar
    10    27    29   ar
    11    23    24   ar
    12    24    25   ar
    13    25    26   ar
    14     1     2    1
    15     2     3    1
    16     3    30    1
    17    30    31   ar
    18    31    32   ar
    19    32    36    1
    20    36    37   ar
    21    37    38   ar
    22    38    39   ar
    23    39    40    1
    24    39    41   ar
    25    41    42   ar
    26    32    33   ar
    27    33    34   ar
    28     3     4    1
    29     4     5    1
    30     5     6    2
    31     6     7    1
    32     7     8    2
    33     8     9    1
    34     9    10    1
    35    10    11    2
    36    11    12    1
    37    12    13    2
    38    18    19   ar
    39    19    20   ar
    40    20    16   ar
    41     6     1    1
    42    13     8    1
    43    26    21   ar
    44    34    30   ar
    45    13     5    1
    46    42    36   ar
    47     2    14    1
    48    34    35    1
@<TRIPOS>MOLECULE
*****
 42 48 0 0 0
SMALL
GASTEIGER

@<TRIPOS>ATOM
      1 C         140.2234  141.5885  160.0297 C.3     1  UNL1        0.1354
      2 N         140.1783  140.7695  158.7738 N.3     1  UNL1       -0.2823
      3 C         139.8496  139.3077  158.8431 C.3     1  UNL1        0.1166
      4 C         139.5659  138.6647  160.1683 C.3     1  UNL1        0.0511
      5 C         139.6110  139.4836  161.4242 C.2     1  UNL1       -0.0038
      6 C         139.9397  140.9455  161.3549 C.2     1  UNL1        0.0768
      7 N         139.9103  141.4938  162.7507 N.2     1  UNL1       -0.2520
      8 C         139.5634  140.3709  163.6827 C.2     1  UNL1        0.0627
      9 C         139.3920  140.3191  165.1720 C.3     1  UNL1        0.0717
     10 C         139.0357  139.0250  165.8414 C.2     1  UNL1       -0.0198
     11 C         138.8507  137.7825  165.0215 C.2     1  UNL1       -0.0042
     12 C         139.0221  137.8343  163.5322 C.2     1  UNL1        0.0006
     13 C         139.3784  139.1285  162.8629 C.2     1  UNL1        0.0111
     14 H         141.0987  140.8442  158.3404 H       1  UNL1        0.1245
     15 C         139.8040  145.6000  156.6220 C.3     1  UNL1        0.1537
     16 N         140.3710  144.4870  157.4524 N.ar    1  UNL1       -0.2476
     17 C         139.6043  143.6206  158.4073 C.ar    1  UNL1        0.0944
     18 C         140.5637  142.6430  159.0188 C.ar    1  UNL1        0.0407
     19 C         141.9233  142.9052  158.4418 C.ar    1  UNL1        0.1193
     20 N         141.8042  144.0448  157.4737 N.ar    1  UNL1       -0.1679
     21 C         140.3867  142.7737  160.9346 C.ar    1  UNL1        0.0811
     22 C         141.7356  143.1045  161.5009 C.ar    1  UNL1        0.0179
     23 C         141.8990  144.2897  162.4058 C.ar    1  UNL1        0.0168
     24 C         140.7134  145.1438  162.7442 C.ar    1  UNL1        0.0218
     25 C         139.3644  144.8130  162.1779 C.ar    1  UNL1        0.0986
     26 N         139.2011  143.6278  161.2730 N.ar    1  UNL1       -0.2462
     27 C         143.2479  144.6206  162.9722 C.2     1  UNL1        0.0730
     28 O         143.3554  145.2995  164.3055 O.co2   1  UNL1       -0.5446
     29 O         144.4893  144.2726  162.2055 O.co2   1  UNL1       -0.5446
     30 C         139.8045  138.4887  157.5871 C.ar    1  UNL1        0.1318
     31 N         140.7412  137.3736  157.2277 N.ar    1  UNL1       -0.2298
     32 C         140.3304  136.8367  155.8886 C.ar    1  UNL1        0.0996
     33 C         139.1400  137.6201  155.4205 C.ar    1  UNL1        0.0927
     34 N         138.8150  138.6410  156.4702 N.ar    1  UNL1       -0.3386
     35 H         138.0810  139.2961  156.4327 H       1  UNL1        0.1672
     36 C         140.9938  135.7137  155.1478 C.ar    1  UNL1        0.0193
     37 C         140.7225  135.5161  153.6858 C.ar    1  UNL1        0.0039
     38 C         141.3857  134.3931  152.9449 C.ar    1  UNL1        0.0297
     39 C         142.3203  133.4677  153.6660 C.ar    1  UNL1        0.1401
     40 F         142.9837  132.3446  152.9252 F       1  UNL1       -0.2042
     41 C         142.5916  133.6652  155.1280 C.ar    1  UNL1        0.0297
     42 C         141.9284  134.7882  155.8689 C.ar    1  UNL1        0.0039
@<TRIPOS>UNITY_ATOM_ATTR
28 1
charge -1
@<TRIPOS>BOND
     1    15    16    1
     2    16    17   ar
     3    17    18   ar
     4     1    18    1
     5     1    21    1
     6    21    22   ar
     7    22    23   ar
     8    23    27    1
     9    27    28   ar
    10    27    29   ar
    11    23    24   ar
    12    24    25   ar
    13    25    26   ar
    14     1     2    1
    15     2     3    1
    16     3    30    1
    17    30    31   ar
    18    31    32   ar
    19    32    36    1
    20    36    37   ar
    21    37    38   ar
    22    38    39   ar
    23    39    40    1
    24    39    41   ar
    25    41    42   ar
    26    32    33   ar
    27    33    34   ar
    28     3     4    1
    29     4     5    1
    30     5     6    2
    31     6     7    1
    32     7     8    2
    33     8     9    1
    34     9    10    1
    35    10    11    2
    36    11    12    1
    37    12    13    2
    38    18    19   ar
    39    19    20   ar
    40    20    16   ar
    41     6     1    1
    42    13     8    1
    43    26    21   ar
    44    34    30   ar
    45    13     5    1
    46    42    36   ar
    47     2    14    1
    48    34    35    1
@<TRIPOS>MOLECULE
*****
 42 48 0 0 0
SMALL
GASTEIGER

@<TRIPOS>ATOM
      1 C         140.9519  140.9621  160.1530 C.3     1  UNL1        0.1354
      2 N         141.7940  140.9423  158.9118 N.3     1  UNL1       -0.2823
      3 C         143.2306  140.5177  158.9870 C.3     1  UNL1        0.1166
      4 C         143.8252  140.1128  160.3033 C.3     1  UNL1        0.0511
      5 C         142.9831  140.1326  161.5444 C.2     1  UNL1       -0.0038
      6 C         141.5464  140.5572  161.4692 C.2     1  UNL1        0.0768
      7 N         140.9666  140.4769  162.8503 N.2     1  UNL1       -0.2520
      8 C         142.0448  140.0027  163.7790 C.2     1  UNL1        0.0627
      9 C         142.0528  139.7372  165.2552 C.3     1  UNL1        0.0717
     10 C         143.3072  139.2588  165.9244 C.2     1  UNL1       -0.0198
     11 C         144.5535  139.0460  165.1173 C.2     1  UNL1       -0.0042
     12 C         144.5455  139.3115  163.6410 C.2     1  UNL1        0.0006
     13 C         143.2911  139.7899  162.9719 C.2     1  UNL1        0.0111
     14 H         141.7865  141.8905  158.5358 H       1  UNL1        0.1245
     15 C         136.9491  141.0246  156.7099 C.3     1  UNL1        0.1537
     16 N         138.1033  141.4591  157.5637 N.ar    1  UNL1       -0.2476
     17 C         138.8849  140.5861  158.5004 C.ar    1  UNL1        0.0944
     18 C         139.9432  141.4303  159.1464 C.ar    1  UNL1        0.0407
     19 C         139.8157  142.8250  158.6090 C.ar    1  UNL1        0.1193
     20 N         138.6786  142.8427  157.6309 N.ar    1  UNL1       -0.1679
     21 C         139.7594  141.1444  161.0446 C.ar    1  UNL1        0.0811
     22 C         139.4814  142.4836  161.6604 C.ar    1  UNL1        0.0179
     23 C         138.2890  142.6661  162.5520 C.ar    1  UNL1        0.0168
     24 C         137.3748  141.5093  162.8277 C.ar    1  UNL1        0.0218
     25 C         137.6528  140.1701  162.2119 C.ar    1  UNL1        0.0986
     26 N         138.8452  139.9878  161.3203 N.ar    1  UNL1       -0.2462
     27 C         138.0108  144.0052  163.1679 C.2     1  UNL1        0.0730
     28 O         138.1194  145.2497  162.3375 O.co2   1  UNL1       -0.5446
     29 O         137.6241  144.0999  164.6140 O.co2   1  UNL1       -0.5446
     30 C         144.0728  140.4979  157.7458 C.ar    1  UNL1        0.1318
     31 N         145.0487  141.5567  157.3256 N.ar    1  UNL1       -0.2298
     32 C         145.6660  141.1291  156.0271 C.ar    1  UNL1        0.0996
     33 C         145.0716  139.8060  155.6448 C.ar    1  UNL1        0.0927
     34 N         144.0869  139.4160  156.7070 N.ar    1  UNL1       -0.3386
     35 H         143.5451  138.5941  156.7201 H       1  UNL1        0.1672
     36 C         146.6967  141.8908  155.2477 C.ar    1  UNL1        0.0193
     37 C         146.2826  143.0473  154.3869 C.ar    1  UNL1        0.0039
     38 C         147.3133  143.8091  153.6075 C.ar    1  UNL1        0.0297
     39 C         148.7581  143.4143  153.6890 C.ar    1  UNL1        0.1401
     40 F         149.7888  144.1761  152.9097 F       1  UNL1       -0.2042
     41 C         149.1722  142.2579  154.5499 C.ar    1  UNL1        0.0297
     42 C         148.1415  141.4961  155.3292 C.ar    1  UNL1        0.0039
@<TRIPOS>UNITY_ATOM_ATTR
28 1
charge -1
@<TRIPOS>BOND
     1    15    16    1
     2    16    17   ar
     3    17    18   ar
     4     1    18    1
     5     1    21    1
     6    21    22   ar
     7    22    23   ar
     8    23    27    1
     9    27    28   ar
    10    27    29   ar
    11    23    24   ar
    12    24    25   ar
    13    25    26   ar
    14     1     2    1
    15     2     3    1
    16     3    30    1
    17    30    31   ar
    18    31    32   ar
    19    32    36    1
    20    36    37   ar
    21    37    38   ar
    22    38    39   ar
    23    39    40    1
    24    39    41   ar
    25    41    42   ar
    26    32    33   ar
    27    33    34   ar
    28     3     4    1
    29     4     5    1
    30     5     6    2
    31     6     7    1
    32     7     8    2
    33     8     9    1
    34     9    10    1
    35    10    11    2
    36    11    12    1
    37    12    13    2
    38    18    19   ar
    39    19    20   ar
    40    20    16   ar
    41     6     1    1
    42    13     8    1
    43    26    21   ar
    44    34    30   ar
    45    13     5    1
    46    42    36   ar
    47     2    14    1
    48    34    35    1
@<TRIPOS>MOLECULE
*****
 42 48 0 0 0
SMALL
GASTEIGER

@<TRIPOS>ATOM
      1 C         141.9674  143.6999  159.4188 C.3     1  UNL1        0.1354
      2 N         142.6808  143.3932  158.1355 N.3     1  UNL1       -0.2823
      3 C         144.0322  142.7430  158.1656 C.3     1  UNL1        0.1166
      4 C         144.6702  142.3995  159.4791 C.3     1  UNL1        0.0511
      5 C         143.9567  142.7062  160.7624 C.2     1  UNL1       -0.0038
      6 C         142.6053  143.3564  160.7322 C.2     1  UNL1        0.0768
      7 N         142.1463  143.5372  162.1488 N.2     1  UNL1       -0.2520
      8 C         143.2140  142.9987  163.0544 C.2     1  UNL1        0.0627
      9 C         143.3119  142.9096  164.5485 C.3     1  UNL1        0.0717
     10 C         144.5287  142.3070  165.1857 C.2     1  UNL1       -0.0198
     11 C         145.6477  141.7934  164.3289 C.2     1  UNL1       -0.0042
     12 C         145.5498  141.8825  162.8347 C.2     1  UNL1        0.0006
     13 C         144.3329  142.4851  162.1975 C.2     1  UNL1        0.0111
     14 H         142.7909  144.2785  157.6410 H       1  UNL1        0.1245
     15 C         139.3648  146.8513  156.0757 C.3     1  UNL1        0.1537
     16 N         139.7638  145.6601  156.8955 N.ar    1  UNL1       -0.2476
     17 C         140.9405  145.5821  157.8226 C.ar    1  UNL1        0.0944
     18 C         140.9602  144.2116  158.4321 C.ar    1  UNL1        0.0407
     19 C         139.7957  143.4428  157.8817 C.ar    1  UNL1        0.1193
     20 N         139.0564  144.3380  156.9320 N.ar    1  UNL1       -0.1679
     21 C         140.9041  144.1844  160.3595 C.ar    1  UNL1        0.0811
     22 C         139.9402  143.2093  160.9679 C.ar    1  UNL1        0.0179
     23 C         138.8769  143.6937  161.9087 C.ar    1  UNL1        0.0168
     24 C         138.7777  145.1530  162.2409 C.ar    1  UNL1        0.0218
     25 C         139.7415  146.1281  161.6325 C.ar    1  UNL1        0.0986
     26 N         140.8048  145.6436  160.6917 N.ar    1  UNL1       -0.2462
     27 C         137.9130  142.7187  162.5171 C.2     1  UNL1        0.0730
     28 O         137.3898  141.5734  161.7019 O.co2   1  UNL1       -0.5446
     29 O         137.4722  142.8890  163.9407 O.co2   1  UNL1       -0.5446
     30 C         144.7457  142.4362  156.8823 C.ar    1  UNL1        0.1318
     31 N         146.2317  142.3428  156.7003 N.ar    1  UNL1       -0.2298
     32 C         146.5029  142.0179  155.2613 C.ar    1  UNL1        0.0996
     33 C         145.1846  141.9106  154.5539 C.ar    1  UNL1        0.0927
     34 N         144.0986  142.1692  155.5557 N.ar    1  UNL1       -0.3386
     35 H         143.1309  142.1644  155.3745 H       1  UNL1        0.1672
     36 C         147.8551  141.8328  154.6389 C.ar    1  UNL1        0.0193
     37 C         149.0732  141.7305  155.5082 C.ar    1  UNL1        0.0039
     38 C         150.4254  141.5454  154.8859 C.ar    1  UNL1        0.0297
     39 C         150.5595  141.4626  153.3942 C.ar    1  UNL1        0.1401
     40 F         151.9117  141.2775  152.7718 F       1  UNL1       -0.2042
     41 C         149.3414  141.5649  152.5249 C.ar    1  UNL1        0.0297
     42 C         147.9892  141.7500  153.1472 C.ar    1  UNL1        0.0039
@<TRIPOS>UNITY_ATOM_ATTR
28 1
charge -1
@<TRIPOS>BOND
     1    15    16    1
     2    16    17   ar
     3    17    18   ar
     4     1    18    1
     5     1    21    1
     6    21    22   ar
     7    22    23   ar
     8    23    27    1
     9    27    28   ar
    10    27    29   ar
    11    23    24   ar
    12    24    25   ar
    13    25    26   ar
    14     1     2    1
    15     2     3    1
    16     3    30    1
    17    30    31   ar
    18    31    32   ar
    19    32    36    1
    20    36    37   ar
    21    37    38   ar
    22    38    39   ar
    23    39    40    1
    24    39    41   ar
    25    41    42   ar
    26    32    33   ar
    27    33    34   ar
    28     3     4    1
    29     4     5    1
    30     5     6    2
    31     6     7    1
    32     7     8    2
    33     8     9    1
    34     9    10    1
    35    10    11    2
    36    11    12    1
    37    12    13    2
    38    18    19   ar
    39    19    20   ar
    40    20    16   ar
    41     6     1    1
    42    13     8    1
    43    26    21   ar
    44    34    30   ar
    45    13     5    1
    46    42    36   ar
    47     2    14    1
    48    34    35    1
@<TRIPOS>MOLECULE
*****
 42 48 0 0 0
SMALL
GASTEIGER

@<TRIPOS>ATOM
      1 C         140.5890  140.6961  159.9525 C.3     1  UNL1        0.1354
      2 N         141.0788  139.9242  158.7633 N.3     1  UNL1       -0.2823
      3 C         142.2267  138.9698  158.9097 C.3     1  UNL1        0.1166
      4 C         142.8847  138.7872  160.2453 C.3     1  UNL1        0.0511
      5 C         142.3948  139.5591  161.4345 C.2     1  UNL1       -0.0038
      6 C         141.2470  140.5135  161.2881 C.2     1  UNL1        0.0768
      7 N         140.9846  141.1321  162.6292 N.2     1  UNL1       -0.2520
      8 C         141.9703  140.5599  163.6044 C.2     1  UNL1        0.0627
      9 C         142.1868  140.7986  165.0694 C.3     1  UNL1        0.0717
     10 C         143.2749  140.0651  165.7959 C.2     1  UNL1       -0.0198
     11 C         144.1465  139.0929  165.0575 C.2     1  UNL1       -0.0042
     12 C         143.9300  138.8542  163.5926 C.2     1  UNL1        0.0006
     13 C         142.8419  139.5878  162.8660 C.2     1  UNL1        0.0111
     14 H         141.3539  140.6099  158.0601 H       1  UNL1        0.1245
     15 C         136.5183  141.0736  156.6106 C.3     1  UNL1        0.1537
     16 N         137.7762  141.3821  157.3673 N.ar    1  UNL1       -0.2476
     17 C         138.4110  140.5145  158.4135 C.ar    1  UNL1        0.0944
     18 C         139.6473  141.2085  158.9034 C.ar    1  UNL1        0.0407
     19 C         139.7764  142.5050  158.1601 C.ar    1  UNL1        0.1193
     20 N         138.6200  142.6123  157.2108 N.ar    1  UNL1       -0.1679
     21 C         139.7720  141.6460  160.7774 C.ar    1  UNL1        0.0811
     22 C         140.2344  143.0598  160.9709 C.ar    1  UNL1        0.0179
     23 C         139.4175  144.0097  161.7958 C.ar    1  UNL1        0.0168
     24 C         138.1384  143.5458  162.4271 C.ar    1  UNL1        0.0218
     25 C         137.6761  142.1320  162.2337 C.ar    1  UNL1        0.0986
     26 N         138.4930  141.1821  161.4087 N.ar    1  UNL1       -0.2462
     27 C         139.8798  145.4235  161.9894 C.2     1  UNL1        0.0730
     28 O         141.0472  145.7148  162.8851 O.co2   1  UNL1       -0.5446
     29 O         139.1747  146.5459  161.2872 O.co2   1  UNL1       -0.5446
     30 C         142.7166  138.1978  157.7205 C.ar    1  UNL1        0.1318
     31 N         142.3678  136.7777  157.3866 N.ar    1  UNL1       -0.2298
     32 C         143.0769  136.4126  156.1162 C.ar    1  UNL1        0.0996
     33 C         143.8639  137.6072  155.6650 C.ar    1  UNL1        0.0927
     34 N         143.6412  138.7105  156.6564 N.ar    1  UNL1       -0.3386
     35 H         144.0331  139.6127  156.6160 H       1  UNL1        0.1672
     36 C         143.0106  135.0859  155.4194 C.ar    1  UNL1        0.0193
     37 C         142.2671  134.9559  154.1232 C.ar    1  UNL1        0.0039
     38 C         142.2008  133.6292  153.4264 C.ar    1  UNL1        0.0297
     39 C         142.8780  132.4326  154.0258 C.ar    1  UNL1        0.1401
     40 F         142.8117  131.1059  153.3290 F       1  UNL1       -0.2042
     41 C         143.6216  132.5626  155.3220 C.ar    1  UNL1        0.0297
     42 C         143.6879  133.8893  156.0188 C.ar    1  UNL1        0.0039
@<TRIPOS>UNITY_ATOM_ATTR
28 1
charge -1
@<TRIPOS>BOND
     1    15    16    1
     2    16    17   ar
     3    17    18   ar
     4     1    18    1
     5     1    21    1
     6    21    22   ar
     7    22    23   ar
     8    23    27    1
     9    27    28   ar
    10    27    29   ar
    11    23    24   ar
    12    24    25   ar
    13    25    26   ar
    14     1     2    1
    15     2     3    1
    16     3    30    1
    17    30    31   ar
    18    31    32   ar
    19    32    36    1
    20    36    37   ar
    21    37    38   ar
    22    38    39   ar
    23    39    40    1
    24    39    41   ar
    25    41    42   ar
    26    32    33   ar
    27    33    34   ar
    28     3     4    1
    29     4     5    1
    30     5     6    2
    31     6     7    1
    32     7     8    2
    33     8     9    1
    34     9    10    1
    35    10    11    2
    36    11    12    1
    37    12    13    2
    38    18    19   ar
    39    19    20   ar
    40    20    16   ar
    41     6     1    1
    42    13     8    1
    43    26    21   ar
    44    34    30   ar
    45    13     5    1
    46    42    36   ar
    47     2    14    1
    48    34    35    1
