@<TRIPOS>MOLECULE
*****
 35 40 0 0 0
SMALL
GASTEIGER

@<TRIPOS>ATOM
      1 S         140.5232  145.0245  158.9960 S.3     1  UNL1       -0.0756
      2 C         141.3688  144.4535  162.7410 C.ar    1  UNL1        0.1669
      3 N         140.2397  145.4357  162.8452 N.ar    1  UNL1       -0.1282
      4 N         139.7856  145.7691  161.4550 N.ar    1  UNL1       -0.1221
      5 C         140.6339  144.9931  160.4915 C.ar    1  UNL1        0.1932
      6 N         141.6124  144.1800  161.2863 N.ar    1  UNL1       -0.2884
      7 C         142.6519  143.2557  160.7250 C.3     1  UNL1        0.1340
      8 C         139.3941  139.9624  167.5555 C.3     1  UNL1        0.0521
      9 C         140.0760  140.9345  166.6390 C.ar    1  UNL1        0.0593
     10 C         139.3229  141.5372  165.4904 C.ar    1  UNL1        0.0147
     11 C         140.0049  142.5093  164.5739 C.ar    1  UNL1        0.0028
     12 C         141.4400  142.8787  164.8061 C.ar    1  UNL1        0.0206
     13 C         142.1219  143.8508  163.8896 C.ar    1  UNL1        0.0374
     14 C         143.5570  144.2203  164.1218 C.ar    1  UNL1        0.0031
     15 C         144.3103  143.6175  165.2705 C.ar    1  UNL1        0.0016
     16 C         143.6283  142.6454  166.1870 C.ar    1  UNL1        0.0191
     17 C         142.1931  142.2760  165.9548 C.ar    1  UNL1        0.0810
     18 N         141.5111  141.3039  166.8712 N.ar    1  UNL1       -0.2497
     19 C         139.7079  143.9873  158.2823 C.3     1  UNL1        0.0666
     20 C         139.6188  142.5945  158.8321 C.3     1  UNL1        0.0294
     21 C         138.4750  142.2119  159.7239 C.3     1  UNL1        0.0730
     22 N         138.5544  140.9634  160.5516 N.3     1  UNL1       -0.2724
     23 C         137.5257  139.8730  160.6031 C.3     1  UNL1        0.0724
     24 C         138.0118  138.8218  161.5564 C.3     1  UNL1        0.0214
     25 C         138.7451  137.9610  162.5420 C.3     1  UNL1        0.0072
     26 C         139.3409  139.2626  162.0940 C.3     1  UNL1        0.0350
     27 C         139.6763  140.5862  161.4730 C.3     1  UNL1        0.0761
     28 C         140.5874  139.1576  162.9218 C.ar    1  UNL1       -0.0206
     29 C         140.6173  138.2582  164.1218 C.ar    1  UNL1       -0.0033
     30 C         141.8637  138.1531  164.9496 C.ar    1  UNL1        0.0119
     31 C         143.0805  138.9475  164.5774 C.ar    1  UNL1        0.0682
     32 CL        144.3269  138.8424  165.4051 Cl      1  UNL1       -0.0814
     33 C         143.0506  139.8468  163.3773 C.ar    1  UNL1        0.0679
     34 CL        144.2673  140.6413  163.0050 Cl      1  UNL1       -0.0814
     35 C         141.8041  139.9519  162.5495 C.ar    1  UNL1        0.0080
@<TRIPOS>BOND
     1     8     9    1
     2     9    10   ar
     3    10    11   ar
     4    11    12   ar
     5    12    13   ar
     6    13     2    1
     7     2     3   ar
     8     3     4   ar
     9     4     5   ar
    10     5     1    1
    11     1    19    1
    12    19    20    1
    13    20    21    1
    14    21    22    1
    15    22    23    1
    16    23    24    1
    17    24    25    1
    18    25    26    1
    19    26    28    1
    20    28    29   ar
    21    29    30   ar
    22    30    31   ar
    23    31    32    1
    24    31    33   ar
    25    33    34    1
    26    33    35   ar
    27    26    27    1
    28     5     6   ar
    29     6     7    1
    30    13    14   ar
    31    14    15   ar
    32    15    16   ar
    33    16    17   ar
    34    17    18   ar
    35    18     9   ar
    36    17    12   ar
    37     6     2   ar
    38    27    22    1
    39    26    24    1
    40    35    28   ar
@<TRIPOS>MOLECULE
*****
 35 40 0 0 0
SMALL
GASTEIGER

@<TRIPOS>ATOM
      1 S         140.1791  144.4623  159.3449 S.3     1  UNL1       -0.0756
      2 C         139.7777  141.0161  161.0851 C.ar    1  UNL1        0.1669
      3 N         138.3820  141.2553  160.5903 N.ar    1  UNL1       -0.1282
      4 N         138.3625  142.5754  159.8783 N.ar    1  UNL1       -0.1221
      5 C         139.7462  143.1521  159.9329 C.ar    1  UNL1        0.1932
      6 N         140.6208  142.1883  160.6788 N.ar    1  UNL1       -0.2884
      7 C         142.0820  142.3657  160.9677 C.3     1  UNL1        0.1340
      8 C         137.7896  138.4961  167.1635 C.3     1  UNL1        0.0521
      9 C         138.4041  138.8259  165.8355 C.ar    1  UNL1        0.0593
     10 C         137.9341  140.0265  165.0691 C.ar    1  UNL1        0.0147
     11 C         138.5486  140.3564  163.7411 C.ar    1  UNL1        0.0028
     12 C         139.6332  139.4856  163.1796 C.ar    1  UNL1        0.0206
     13 C         140.2478  139.8155  161.8516 C.ar    1  UNL1        0.0374
     14 C         141.3324  138.9447  161.2901 C.ar    1  UNL1        0.0031
     15 C         141.8025  137.7440  162.0566 C.ar    1  UNL1        0.0016
     16 C         141.1880  137.4142  163.3846 C.ar    1  UNL1        0.0191
     17 C         140.1033  138.2850  163.9461 C.ar    1  UNL1        0.0810
     18 N         139.4887  137.9552  165.2740 N.ar    1  UNL1       -0.2497
     19 C         140.8439  145.4902  160.2118 C.3     1  UNL1        0.0666
     20 C         140.3458  145.7309  161.6061 C.3     1  UNL1        0.0294
     21 C         141.2482  145.4824  162.7782 C.3     1  UNL1        0.0730
     22 N         140.7867  144.6112  163.9087 N.3     1  UNL1       -0.2724
     23 C         139.5957  144.8619  164.7855 C.3     1  UNL1        0.0724
     24 C         139.5081  143.7419  165.7795 C.3     1  UNL1        0.0214
     25 C         139.6767  142.5160  166.6273 C.3     1  UNL1        0.0072
     26 C         140.6448  142.7992  165.5171 C.3     1  UNL1        0.0350
     27 C         141.4351  143.3364  164.3608 C.3     1  UNL1        0.0761
     28 C         141.4956  141.5835  165.7371 C.ar    1  UNL1       -0.0206
     29 C         141.3174  140.7577  166.9765 C.ar    1  UNL1       -0.0033
     30 C         142.1682  139.5420  167.1965 C.ar    1  UNL1        0.0119
     31 C         143.1972  139.1522  166.1771 C.ar    1  UNL1        0.0682
     32 CL        144.0479  137.9366  166.3971 Cl      1  UNL1       -0.0814
     33 C         143.3753  139.9781  164.9377 C.ar    1  UNL1        0.0679
     34 CL        144.4043  139.5883  163.9182 Cl      1  UNL1       -0.0814
     35 C         142.5246  141.1937  164.7177 C.ar    1  UNL1        0.0080
@<TRIPOS>BOND
     1     8     9    1
     2     9    10   ar
     3    10    11   ar
     4    11    12   ar
     5    12    13   ar
     6    13     2    1
     7     2     3   ar
     8     3     4   ar
     9     4     5   ar
    10     5     1    1
    11     1    19    1
    12    19    20    1
    13    20    21    1
    14    21    22    1
    15    22    23    1
    16    23    24    1
    17    24    25    1
    18    25    26    1
    19    26    28    1
    20    28    29   ar
    21    29    30   ar
    22    30    31   ar
    23    31    32    1
    24    31    33   ar
    25    33    34    1
    26    33    35   ar
    27    26    27    1
    28     5     6   ar
    29     6     7    1
    30    13    14   ar
    31    14    15   ar
    32    15    16   ar
    33    16    17   ar
    34    17    18   ar
    35    18     9   ar
    36    17    12   ar
    37     6     2   ar
    38    27    22    1
    39    26    24    1
    40    35    28   ar
@<TRIPOS>MOLECULE
*****
 35 40 0 0 0
SMALL
GASTEIGER

@<TRIPOS>ATOM
      1 S         140.5524  145.4267  160.9434 S.3     1  UNL1       -0.0756
      2 C         140.2500  143.5227  164.3123 C.ar    1  UNL1        0.1669
      3 N         138.9081  144.1885  164.2341 N.ar    1  UNL1       -0.1282
      4 N         138.8580  144.9827  162.9626 N.ar    1  UNL1       -0.1221
      5 C         140.1690  144.8079  162.2549 C.ar    1  UNL1        0.1932
      6 N         141.0293  143.9055  163.0891 N.ar    1  UNL1       -0.2884
      7 C         142.4240  143.4635  162.7581 C.3     1  UNL1        0.1340
      8 C         137.5506  137.7760  166.9466 C.3     1  UNL1        0.0521
      9 C         138.3451  138.9897  166.5648 C.ar    1  UNL1        0.0593
     10 C         137.8666  139.8816  165.4578 C.ar    1  UNL1        0.0147
     11 C         138.6611  141.0953  165.0760 C.ar    1  UNL1        0.0028
     12 C         139.9341  141.4171  165.8011 C.ar    1  UNL1        0.0206
     13 C         140.7285  142.6308  165.4193 C.ar    1  UNL1        0.0374
     14 C         142.0016  142.9525  166.1444 C.ar    1  UNL1        0.0031
     15 C         142.4802  142.0606  167.2514 C.ar    1  UNL1        0.0016
     16 C         141.6857  140.8469  167.6333 C.ar    1  UNL1        0.0191
     17 C         140.4126  140.5251  166.9081 C.ar    1  UNL1        0.0810
     18 N         139.6181  139.3115  167.2899 N.ar    1  UNL1       -0.2497
     19 C         140.4203  144.6375  159.6747 C.3     1  UNL1        0.0666
     20 C         140.4585  143.1386  159.7164 C.3     1  UNL1        0.0294
     21 C         139.1881  142.3520  159.5852 C.3     1  UNL1        0.0730
     22 N         139.0123  141.0770  160.3558 N.3     1  UNL1       -0.2724
     23 C         137.8826  140.1024  160.2016 C.3     1  UNL1        0.0724
     24 C         138.1074  138.9759  161.1663 C.3     1  UNL1        0.0214
     25 C         138.5895  138.0111  162.2088 C.3     1  UNL1        0.0072
     26 C         139.3760  139.2545  161.9166 C.3     1  UNL1        0.0350
     27 C         139.9353  140.5530  161.4157 C.3     1  UNL1        0.0761
     28 C         140.4635  138.9904  162.9155 C.ar    1  UNL1       -0.0206
     29 C         140.3997  137.7730  163.7894 C.ar    1  UNL1       -0.0033
     30 C         141.4872  137.5089  164.7882 C.ar    1  UNL1        0.0119
     31 C         142.6385  138.4622  164.9132 C.ar    1  UNL1        0.0682
     32 CL        143.7259  138.1982  165.9120 Cl      1  UNL1       -0.0814
     33 C         142.7022  139.6797  164.0392 C.ar    1  UNL1        0.0679
     34 CL        143.8535  140.6331  164.1641 Cl      1  UNL1       -0.0814
     35 C         141.6148  139.9437  163.0404 C.ar    1  UNL1        0.0080
@<TRIPOS>BOND
     1     8     9    1
     2     9    10   ar
     3    10    11   ar
     4    11    12   ar
     5    12    13   ar
     6    13     2    1
     7     2     3   ar
     8     3     4   ar
     9     4     5   ar
    10     5     1    1
    11     1    19    1
    12    19    20    1
    13    20    21    1
    14    21    22    1
    15    22    23    1
    16    23    24    1
    17    24    25    1
    18    25    26    1
    19    26    28    1
    20    28    29   ar
    21    29    30   ar
    22    30    31   ar
    23    31    32    1
    24    31    33   ar
    25    33    34    1
    26    33    35   ar
    27    26    27    1
    28     5     6   ar
    29     6     7    1
    30    13    14   ar
    31    14    15   ar
    32    15    16   ar
    33    16    17   ar
    34    17    18   ar
    35    18     9   ar
    36    17    12   ar
    37     6     2   ar
    38    27    22    1
    39    26    24    1
    40    35    28   ar
@<TRIPOS>MOLECULE
*****
 35 40 0 0 0
SMALL
GASTEIGER

@<TRIPOS>ATOM
      1 S         138.9228  142.8824  158.6198 S.3     1  UNL1       -0.0756
      2 C         139.0220  140.8251  161.9097 C.ar    1  UNL1        0.1669
      3 N         138.0373  141.8984  162.2685 N.ar    1  UNL1       -0.1282
      4 N         137.8803  142.7996  161.0798 N.ar    1  UNL1       -0.1221
      5 C         138.7680  142.2835  159.9863 C.ar    1  UNL1        0.1932
      6 N         139.4736  141.0631  160.4992 N.ar    1  UNL1       -0.2884
      7 C         140.4579  140.2276  159.7357 C.3     1  UNL1        0.1340
      8 C         145.2374  139.3236  164.4325 C.3     1  UNL1        0.0521
      9 C         143.7969  139.4202  164.0254 C.ar    1  UNL1        0.0593
     10 C         143.3435  140.5355  163.1308 C.ar    1  UNL1        0.0147
     11 C         141.9030  140.6320  162.7238 C.ar    1  UNL1        0.0028
     12 C         140.9159  139.6132  163.2114 C.ar    1  UNL1        0.0206
     13 C         139.4755  139.7098  162.8043 C.ar    1  UNL1        0.0374
     14 C         138.4884  138.6910  163.2919 C.ar    1  UNL1        0.0031
     15 C         138.9419  137.5756  164.1866 C.ar    1  UNL1        0.0016
     16 C         140.3823  137.4790  164.5936 C.ar    1  UNL1        0.0191
     17 C         141.3694  138.4979  164.1060 C.ar    1  UNL1        0.0810
     18 N         142.8099  138.4014  164.5130 N.ar    1  UNL1       -0.2497
     19 C         139.9992  143.8949  158.3623 C.3     1  UNL1        0.0666
     20 C         141.2245  143.9233  159.2271 C.3     1  UNL1        0.0294
     21 C         141.4031  145.0161  160.2390 C.3     1  UNL1        0.0730
     22 N         140.6997  144.9360  161.5615 N.3     1  UNL1       -0.2724
     23 C         139.4919  145.7277  161.9670 C.3     1  UNL1        0.0724
     24 C         139.1263  145.3312  163.3667 C.3     1  UNL1        0.0214
     25 C         139.0080  144.7435  164.7417 C.3     1  UNL1        0.0072
     26 C         140.1081  144.2945  163.8262 C.3     1  UNL1        0.0350
     27 C         141.0805  144.0502  162.7105 C.3     1  UNL1        0.0761
     28 C         140.7190  143.3148  164.7838 C.ar    1  UNL1       -0.0206
     29 C         142.1871  143.3761  165.0850 C.ar    1  UNL1       -0.0033
     30 C         142.7979  142.3965  166.0426 C.ar    1  UNL1        0.0119
     31 C         141.9406  141.3553  166.6992 C.ar    1  UNL1        0.0682
     32 CL        142.5514  140.3757  167.6568 Cl      1  UNL1       -0.0814
     33 C         140.4724  141.2940  166.3980 C.ar    1  UNL1        0.0679
     34 CL        139.6150  140.2529  167.0545 Cl      1  UNL1       -0.0814
     35 C         139.8616  142.2737  165.4404 C.ar    1  UNL1        0.0080
@<TRIPOS>BOND
     1     8     9    1
     2     9    10   ar
     3    10    11   ar
     4    11    12   ar
     5    12    13   ar
     6    13     2    1
     7     2     3   ar
     8     3     4   ar
     9     4     5   ar
    10     5     1    1
    11     1    19    1
    12    19    20    1
    13    20    21    1
    14    21    22    1
    15    22    23    1
    16    23    24    1
    17    24    25    1
    18    25    26    1
    19    26    28    1
    20    28    29   ar
    21    29    30   ar
    22    30    31   ar
    23    31    32    1
    24    31    33   ar
    25    33    34    1
    26    33    35   ar
    27    26    27    1
    28     5     6   ar
    29     6     7    1
    30    13    14   ar
    31    14    15   ar
    32    15    16   ar
    33    16    17   ar
    34    17    18   ar
    35    18     9   ar
    36    17    12   ar
    37     6     2   ar
    38    27    22    1
    39    26    24    1
    40    35    28   ar
@<TRIPOS>MOLECULE
*****
 35 40 0 0 0
SMALL
GASTEIGER

@<TRIPOS>ATOM
      1 S         138.3208  142.1758  158.9413 S.3     1  UNL1       -0.0756
      2 C         140.1932  143.2726  162.1595 C.ar    1  UNL1        0.1669
      3 N         138.7646  143.4553  162.5788 N.ar    1  UNL1       -0.1282
      4 N         137.8893  143.0667  161.4243 N.ar    1  UNL1       -0.1221
      5 C         138.7769  142.6438  160.2914 C.ar    1  UNL1        0.1932
      6 N         140.2009  142.7711  160.7458 N.ar    1  UNL1       -0.2884
      7 C         141.4185  142.4528  159.9298 C.3     1  UNL1        0.1340
      8 C         141.9680  140.9034  168.3632 C.3     1  UNL1        0.0521
      9 C         141.8265  141.5635  167.0238 C.ar    1  UNL1        0.0593
     10 C         140.6178  141.2923  166.1779 C.ar    1  UNL1        0.0147
     11 C         140.4763  141.9524  164.8384 C.ar    1  UNL1        0.0028
     12 C         141.5434  142.8837  164.3448 C.ar    1  UNL1        0.0206
     13 C         141.4019  143.5439  163.0053 C.ar    1  UNL1        0.0374
     14 C         142.4691  144.4752  162.5117 C.ar    1  UNL1        0.0031
     15 C         143.6778  144.7465  163.3575 C.ar    1  UNL1        0.0016
     16 C         143.8194  144.0864  164.6970 C.ar    1  UNL1        0.0191
     17 C         142.7521  143.1550  165.1906 C.ar    1  UNL1        0.0810
     18 N         142.8936  142.4949  166.5301 N.ar    1  UNL1       -0.2497
     19 C         138.0859  140.7152  158.6937 C.3     1  UNL1        0.0666
     20 C         138.7961  139.6896  159.5267 C.3     1  UNL1        0.0294
     21 C         138.2299  139.2782  160.8534 C.3     1  UNL1        0.0730
     22 N         139.1405  138.7746  161.9338 N.3     1  UNL1       -0.2724
     23 C         138.8498  137.6443  162.8760 C.3     1  UNL1        0.0724
     24 C         140.0312  137.4841  163.7862 C.3     1  UNL1        0.0214
     25 C         141.3302  137.5636  164.5321 C.3     1  UNL1        0.0072
     26 C         141.0521  138.5154  163.4066 C.3     1  UNL1        0.0350
     27 C         140.5016  139.3130  162.2617 C.3     1  UNL1        0.0761
     28 C         142.3551  139.2527  163.4991 C.ar    1  UNL1       -0.0206
     29 C         143.2192  139.0988  164.7155 C.ar    1  UNL1       -0.0033
     30 C         144.5222  139.8362  164.8081 C.ar    1  UNL1        0.0119
     31 C         144.9610  140.7275  163.6842 C.ar    1  UNL1        0.0682
     32 CL        146.2640  141.4648  163.7768 Cl      1  UNL1       -0.0814
     33 C         144.0969  140.8814  162.4679 C.ar    1  UNL1        0.0679
     34 CL        144.5357  141.7727  161.3440 Cl      1  UNL1       -0.0814
     35 C         142.7939  140.1441  162.3753 C.ar    1  UNL1        0.0080
@<TRIPOS>BOND
     1     8     9    1
     2     9    10   ar
     3    10    11   ar
     4    11    12   ar
     5    12    13   ar
     6    13     2    1
     7     2     3   ar
     8     3     4   ar
     9     4     5   ar
    10     5     1    1
    11     1    19    1
    12    19    20    1
    13    20    21    1
    14    21    22    1
    15    22    23    1
    16    23    24    1
    17    24    25    1
    18    25    26    1
    19    26    28    1
    20    28    29   ar
    21    29    30   ar
    22    30    31   ar
    23    31    32    1
    24    31    33   ar
    25    33    34    1
    26    33    35   ar
    27    26    27    1
    28     5     6   ar
    29     6     7    1
    30    13    14   ar
    31    14    15   ar
    32    15    16   ar
    33    16    17   ar
    34    17    18   ar
    35    18     9   ar
    36    17    12   ar
    37     6     2   ar
    38    27    22    1
    39    26    24    1
    40    35    28   ar
@<TRIPOS>MOLECULE
*****
 35 40 0 0 0
SMALL
GASTEIGER

@<TRIPOS>ATOM
      1 S         143.0624  143.2411  159.4112 S.3     1  UNL1       -0.0756
      2 C         143.3246  141.9981  163.0790 C.ar    1  UNL1        0.1669
      3 N         143.6242  143.4585  163.2457 N.ar    1  UNL1       -0.1282
      4 N         143.5624  144.1018  161.8921 N.ar    1  UNL1       -0.1221
      5 C         143.2247  143.0391  160.8887 C.ar    1  UNL1        0.1932
      6 N         143.0777  141.7389  161.6223 N.ar    1  UNL1       -0.2884
      7 C         142.7427  140.4125  161.0071 C.3     1  UNL1        0.1340
      8 C         140.0088  142.0035  169.1002 C.3     1  UNL1        0.0521
      9 C         140.8266  141.7467  167.8692 C.ar    1  UNL1        0.0593
     10 C         140.8714  142.7684  166.7719 C.ar    1  UNL1        0.0147
     11 C         141.6891  142.5117  165.5409 C.ar    1  UNL1        0.0028
     12 C         142.4621  141.2332  165.4072 C.ar    1  UNL1        0.0206
     13 C         143.2799  140.9764  164.1762 C.ar    1  UNL1        0.0374
     14 C         144.0528  139.6979  164.0425 C.ar    1  UNL1        0.0031
     15 C         144.0081  138.6761  165.1398 C.ar    1  UNL1        0.0016
     16 C         143.1903  138.9329  166.3708 C.ar    1  UNL1        0.0191
     17 C         142.4173  140.2115  166.5045 C.ar    1  UNL1        0.0810
     18 N         141.5996  140.4682  167.7355 N.ar    1  UNL1       -0.2497
     19 C         141.9817  144.1423  158.8917 C.3     1  UNL1        0.0666
     20 C         140.5992  144.0651  159.4683 C.3     1  UNL1        0.0294
     21 C         140.2206  144.9372  160.6285 C.3     1  UNL1        0.0730
     22 N         139.4039  144.3750  161.7543 N.3     1  UNL1       -0.2724
     23 C         138.3089  145.0881  162.4907 C.3     1  UNL1        0.0724
     24 C         137.7672  144.1550  163.5327 C.3     1  UNL1        0.0214
     25 C         137.4401  143.0234  164.4614 C.3     1  UNL1        0.0072
     26 C         138.5274  142.8653  163.4403 C.3     1  UNL1        0.0350
     27 C         139.5390  143.0012  162.3411 C.3     1  UNL1        0.0761
     28 C         138.8898  141.4584  163.8136 C.ar    1  UNL1       -0.0206
     29 C         139.7617  140.6424  162.9060 C.ar    1  UNL1       -0.0033
     30 C         140.1241  139.2356  163.2794 C.ar    1  UNL1        0.0119
     31 C         139.6144  138.6446  164.5605 C.ar    1  UNL1        0.0682
     32 CL        139.9768  137.2378  164.9338 Cl      1  UNL1       -0.0814
     33 C         138.7425  139.4606  165.4681 C.ar    1  UNL1        0.0679
     34 CL        138.2328  138.8697  166.7491 Cl      1  UNL1       -0.0814
     35 C         138.3801  140.8675  165.0947 C.ar    1  UNL1        0.0080
@<TRIPOS>BOND
     1     8     9    1
     2     9    10   ar
     3    10    11   ar
     4    11    12   ar
     5    12    13   ar
     6    13     2    1
     7     2     3   ar
     8     3     4   ar
     9     4     5   ar
    10     5     1    1
    11     1    19    1
    12    19    20    1
    13    20    21    1
    14    21    22    1
    15    22    23    1
    16    23    24    1
    17    24    25    1
    18    25    26    1
    19    26    28    1
    20    28    29   ar
    21    29    30   ar
    22    30    31   ar
    23    31    32    1
    24    31    33   ar
    25    33    34    1
    26    33    35   ar
    27    26    27    1
    28     5     6   ar
    29     6     7    1
    30    13    14   ar
    31    14    15   ar
    32    15    16   ar
    33    16    17   ar
    34    17    18   ar
    35    18     9   ar
    36    17    12   ar
    37     6     2   ar
    38    27    22    1
    39    26    24    1
    40    35    28   ar
@<TRIPOS>MOLECULE
*****
 35 40 0 0 0
SMALL
GASTEIGER

@<TRIPOS>ATOM
      1 S         138.2812  140.4216  158.0262 S.3     1  UNL1       -0.0756
      2 C         138.9264  142.8471  160.9871 C.ar    1  UNL1        0.1669
      3 N         139.2822  143.7163  159.8175 N.ar    1  UNL1       -0.1282
      4 N         139.0839  142.9135  158.5660 N.ar    1  UNL1       -0.1221
      5 C         138.6054  141.5481  158.9621 C.ar    1  UNL1        0.1932
      6 N         138.5081  141.5071  160.4584 N.ar    1  UNL1       -0.2884
      7 C         138.0695  140.3323  161.2815 C.3     1  UNL1        0.1340
      8 C         144.0948  142.6808  165.5159 C.3     1  UNL1        0.0521
      9 C         142.8159  142.8225  164.7448 C.ar    1  UNL1        0.0593
     10 C         142.7628  142.4220  163.3003 C.ar    1  UNL1        0.0147
     11 C         141.4840  142.5637  162.5292 C.ar    1  UNL1        0.0028
     12 C         140.2583  143.1059  163.2027 C.ar    1  UNL1        0.0206
     13 C         138.9795  143.2475  162.4316 C.ar    1  UNL1        0.0374
     14 C         137.7538  143.7897  163.1051 C.ar    1  UNL1        0.0031
     15 C         137.8068  144.1902  164.5497 C.ar    1  UNL1        0.0016
     16 C         139.0856  144.0486  165.3208 C.ar    1  UNL1        0.0191
     17 C         140.3114  143.5063  164.6472 C.ar    1  UNL1        0.0810
     18 N         141.5902  143.3646  165.4183 N.ar    1  UNL1       -0.2497
     19 C         139.3456  139.4378  157.6397 C.3     1  UNL1        0.0666
     20 C         139.9353  138.5258  158.6743 C.3     1  UNL1        0.0294
     21 C         141.4118  138.5465  158.9382 C.3     1  UNL1        0.0730
     22 N         141.9210  138.5951  160.3484 N.3     1  UNL1       -0.2724
     23 C         143.3614  138.6424  160.7644 C.3     1  UNL1        0.0724
     24 C         143.4099  138.6815  162.2631 C.3     1  UNL1        0.0214
     25 C         143.1457  138.7121  163.7393 C.3     1  UNL1        0.0072
     26 C         141.9995  138.6585  162.7733 C.3     1  UNL1        0.0350
     27 C         141.0793  138.6051  161.5899 C.3     1  UNL1        0.0761
     28 C         140.9182  138.6572  163.8128 C.ar    1  UNL1       -0.0206
     29 C         139.8503  137.6043  163.7831 C.ar    1  UNL1       -0.0033
     30 C         138.7690  137.6030  164.8226 C.ar    1  UNL1        0.0119
     31 C         138.7555  138.6547  165.8921 C.ar    1  UNL1        0.0682
     32 CL        137.6742  138.6534  166.9317 Cl      1  UNL1       -0.0814
     33 C         139.8234  139.7076  165.9219 C.ar    1  UNL1        0.0679
     34 CL        139.8100  140.7594  166.9913 Cl      1  UNL1       -0.0814
     35 C         140.9047  139.7089  164.8823 C.ar    1  UNL1        0.0080
@<TRIPOS>BOND
     1     8     9    1
     2     9    10   ar
     3    10    11   ar
     4    11    12   ar
     5    12    13   ar
     6    13     2    1
     7     2     3   ar
     8     3     4   ar
     9     4     5   ar
    10     5     1    1
    11     1    19    1
    12    19    20    1
    13    20    21    1
    14    21    22    1
    15    22    23    1
    16    23    24    1
    17    24    25    1
    18    25    26    1
    19    26    28    1
    20    28    29   ar
    21    29    30   ar
    22    30    31   ar
    23    31    32    1
    24    31    33   ar
    25    33    34    1
    26    33    35   ar
    27    26    27    1
    28     5     6   ar
    29     6     7    1
    30    13    14   ar
    31    14    15   ar
    32    15    16   ar
    33    16    17   ar
    34    17    18   ar
    35    18     9   ar
    36    17    12   ar
    37     6     2   ar
    38    27    22    1
    39    26    24    1
    40    35    28   ar
@<TRIPOS>MOLECULE
*****
 35 40 0 0 0
SMALL
GASTEIGER

@<TRIPOS>ATOM
      1 S         142.1196  139.5090  160.4132 S.3     1  UNL1       -0.0756
      2 C         140.8973  138.7211  164.0120 C.ar    1  UNL1        0.1669
      3 N         141.8530  137.5891  163.7760 N.ar    1  UNL1       -0.1282
      4 N         142.4271  137.7465  162.3992 N.ar    1  UNL1       -0.1221
      5 C         141.8264  138.9757  161.7842 C.ar    1  UNL1        0.1932
      6 N         140.8809  139.5780  162.7809 N.ar    1  UNL1       -0.2884
      7 C         140.0627  140.8193  162.5816 C.3     1  UNL1        0.1340
      8 C         142.8143  140.9176  170.2369 C.3     1  UNL1        0.0521
      9 C         142.1353  140.4269  168.9927 C.ar    1  UNL1        0.0593
     10 C         142.9342  140.1931  167.7448 C.ar    1  UNL1        0.0147
     11 C         142.2552  139.7024  166.5006 C.ar    1  UNL1        0.0028
     12 C         140.7774  139.4456  166.5041 C.ar    1  UNL1        0.0206
     13 C         140.0985  138.9549  165.2598 C.ar    1  UNL1        0.0374
     14 C         138.6207  138.6981  165.2633 C.ar    1  UNL1        0.0031
     15 C         137.8217  138.9320  166.5111 C.ar    1  UNL1        0.0016
     16 C         138.5006  139.4227  167.7554 C.ar    1  UNL1        0.0191
     17 C         139.9786  139.6795  167.7519 C.ar    1  UNL1        0.0810
     18 N         140.6575  140.1701  168.9962 N.ar    1  UNL1       -0.2497
     19 C         143.5335  139.8080  160.0114 C.3     1  UNL1        0.0666
     20 C         143.8668  141.1168  159.3587 C.3     1  UNL1        0.0294
     21 C         144.6432  142.1549  160.1134 C.3     1  UNL1        0.0730
     22 N         144.4571  142.3010  161.5947 N.3     1  UNL1       -0.2724
     23 C         145.4799  141.9894  162.6467 C.3     1  UNL1        0.0724
     24 C         144.8704  142.2802  163.9861 C.3     1  UNL1        0.0214
     25 C         144.0096  142.6524  165.1568 C.3     1  UNL1        0.0072
     26 C         143.4710  142.7715  163.7619 C.3     1  UNL1        0.0350
     27 C         143.2156  142.7843  162.2838 C.3     1  UNL1        0.0761
     28 C         142.1169  143.2797  164.1595 C.ar    1  UNL1       -0.0206
     29 C         141.5347  142.9018  165.4891 C.ar    1  UNL1       -0.0033
     30 C         140.1806  143.4100  165.8867 C.ar    1  UNL1        0.0119
     31 C         139.4087  144.2962  164.9546 C.ar    1  UNL1        0.0682
     32 CL        138.0546  144.8044  165.3522 Cl      1  UNL1       -0.0814
     33 C         139.9909  144.6741  163.6249 C.ar    1  UNL1        0.0679
     34 CL        139.2191  145.5603  162.6927 Cl      1  UNL1       -0.0814
     35 C         141.3450  144.1659  163.2273 C.ar    1  UNL1        0.0080
@<TRIPOS>BOND
     1     8     9    1
     2     9    10   ar
     3    10    11   ar
     4    11    12   ar
     5    12    13   ar
     6    13     2    1
     7     2     3   ar
     8     3     4   ar
     9     4     5   ar
    10     5     1    1
    11     1    19    1
    12    19    20    1
    13    20    21    1
    14    21    22    1
    15    22    23    1
    16    23    24    1
    17    24    25    1
    18    25    26    1
    19    26    28    1
    20    28    29   ar
    21    29    30   ar
    22    30    31   ar
    23    31    32    1
    24    31    33   ar
    25    33    34    1
    26    33    35   ar
    27    26    27    1
    28     5     6   ar
    29     6     7    1
    30    13    14   ar
    31    14    15   ar
    32    15    16   ar
    33    16    17   ar
    34    17    18   ar
    35    18     9   ar
    36    17    12   ar
    37     6     2   ar
    38    27    22    1
    39    26    24    1
    40    35    28   ar
@<TRIPOS>MOLECULE
*****
 35 40 0 0 0
SMALL
GASTEIGER

@<TRIPOS>ATOM
      1 S         143.8997  142.5854  158.8699 S.3     1  UNL1       -0.0756
      2 C         143.7147  141.2256  162.5006 C.ar    1  UNL1        0.1669
      3 N         144.7918  142.2611  162.6335 N.ar    1  UNL1       -0.1282
      4 N         144.9922  142.8966  161.2896 N.ar    1  UNL1       -0.1221
      5 C         144.0390  142.2538  160.3261 C.ar    1  UNL1        0.1932
      6 N         143.2494  141.2210  161.0746 N.ar    1  UNL1       -0.2884
      7 C         142.1820  140.3387  160.4983 C.3     1  UNL1        0.1340
      8 C         140.5295  142.8000  168.3850 C.3     1  UNL1        0.0521
      9 C         141.1957  142.1871  167.1889 C.ar    1  UNL1        0.0593
     10 C         141.7161  143.0641  166.0889 C.ar    1  UNL1        0.0147
     11 C         142.3823  142.4513  164.8928 C.ar    1  UNL1        0.0028
     12 C         142.5281  140.9615  164.7968 C.ar    1  UNL1        0.0206
     13 C         143.1943  140.3487  163.6007 C.ar    1  UNL1        0.0374
     14 C         143.3401  138.8589  163.5046 C.ar    1  UNL1        0.0031
     15 C         142.8196  137.9818  164.6047 C.ar    1  UNL1        0.0016
     16 C         142.1534  138.5947  165.8007 C.ar    1  UNL1        0.0191
     17 C         142.0077  140.0845  165.8968 C.ar    1  UNL1        0.0810
     18 N         141.3415  140.6974  167.0929 N.ar    1  UNL1       -0.2497
     19 C         142.7019  143.3473  158.3854 C.3     1  UNL1        0.0666
     20 C         141.8697  144.1322  159.3556 C.3     1  UNL1        0.0294
     21 C         140.4375  143.7542  159.5924 C.3     1  UNL1        0.0730
     22 N         139.8972  143.7014  160.9908 N.3     1  UNL1       -0.2724
     23 C         139.5047  144.8815  161.8294 C.3     1  UNL1        0.0724
     24 C         139.0194  144.3688  163.1528 C.3     1  UNL1        0.0214
     25 C         138.5977  143.5746  164.3535 C.3     1  UNL1        0.0072
     26 C         139.1119  142.8718  163.1322 C.3     1  UNL1        0.0350
     27 C         139.6544  142.4593  161.7959 C.3     1  UNL1        0.0761
     28 C         138.9767  141.4828  163.6820 C.ar    1  UNL1       -0.0206
     29 C         138.3360  141.2651  165.0207 C.ar    1  UNL1       -0.0033
     30 C         138.2008  139.8760  165.5705 C.ar    1  UNL1        0.0119
     31 C         138.7063  138.7046  164.7816 C.ar    1  UNL1        0.0682
     32 CL        138.5711  137.3156  165.3315 Cl      1  UNL1       -0.0814
     33 C         139.3470  138.9223  163.4430 C.ar    1  UNL1        0.0679
     34 CL        139.8525  137.7510  162.6540 Cl      1  UNL1       -0.0814
     35 C         139.4822  140.3114  162.8931 C.ar    1  UNL1        0.0080
@<TRIPOS>BOND
     1     8     9    1
     2     9    10   ar
     3    10    11   ar
     4    11    12   ar
     5    12    13   ar
     6    13     2    1
     7     2     3   ar
     8     3     4   ar
     9     4     5   ar
    10     5     1    1
    11     1    19    1
    12    19    20    1
    13    20    21    1
    14    21    22    1
    15    22    23    1
    16    23    24    1
    17    24    25    1
    18    25    26    1
    19    26    28    1
    20    28    29   ar
    21    29    30   ar
    22    30    31   ar
    23    31    32    1
    24    31    33   ar
    25    33    34    1
    26    33    35   ar
    27    26    27    1
    28     5     6   ar
    29     6     7    1
    30    13    14   ar
    31    14    15   ar
    32    15    16   ar
    33    16    17   ar
    34    17    18   ar
    35    18     9   ar
    36    17    12   ar
    37     6     2   ar
    38    27    22    1
    39    26    24    1
    40    35    28   ar
