@<TRIPOS>MOLECULE
*****
 29 32 0 0 0
SMALL
GASTEIGER

@<TRIPOS>ATOM
      1 N         137.6648  141.6960  163.4566 N.pl3   1  UNL1       -0.2150
      2 H         136.7244  141.4293  163.3395 H       1  UNL1        0.1737
      3 C         138.4113  141.2898  164.6927 C.ar    1  UNL1        0.0648
      4 C         138.1527  139.9518  165.3193 C.ar    1  UNL1        0.0155
      5 C         138.8992  139.5457  166.5554 C.ar    1  UNL1       -0.0029
      6 C         139.9042  140.4776  167.1647 C.ar    1  UNL1       -0.0214
      7 C         140.1628  141.8157  166.5381 C.ar    1  UNL1       -0.0029
      8 C         139.4164  142.2218  165.3021 C.ar    1  UNL1        0.0155
      9 C         140.6507  140.0714  168.4008 C.3     1  UNL1        0.0347
     10 C         141.9377  139.7405  167.7051 C.3     1  UNL1        0.0726
     11 N         142.9206  139.2829  168.7417 N.3     1  UNL1       -0.2972
     12 C         142.2411  139.3310  170.0780 C.3     1  UNL1        0.0689
     13 C         140.8382  139.8184  169.8674 C.3     1  UNL1        0.0211
     14 C         139.5198  140.3174  169.3550 C.3     1  UNL1        0.0072
     15 H         143.7333  139.8994  168.7442 H       1  UNL1        0.1233
     16 O         139.1235  141.2966  161.9691 O.2     1  UNL1       -0.1499
     17 S         138.3512  142.5085  162.3989 S.O2    1  UNL1        0.0736
     18 O         137.5789  143.7204  162.8287 O.2     1  UNL1       -0.1499
     19 C         139.0376  143.3211  161.3412 C.ar    1  UNL1        0.1254
     20 C         139.7110  144.6110  161.7055 C.ar    1  UNL1        0.0233
     21 C         140.3973  145.4235  160.6479 C.ar    1  UNL1        0.0386
     22 C         140.4104  144.9461  159.2259 C.ar    1  UNL1        0.1469
     23 C         139.7370  143.6562  158.8616 C.ar    1  UNL1        0.0386
     24 C         139.0506  142.8437  159.9193 C.ar    1  UNL1        0.0233
     25 O         141.0968  145.7587  158.1682 O.3     1  UNL1       -0.4045
     26 C         140.3597  146.1388  156.9183 C.3     1  UNL1        0.5753
     27 F         139.6227  146.5188  155.6684 F       1  UNL1       -0.1328
     28 F         141.2474  145.2315  156.1190 F       1  UNL1       -0.1328
     29 F         139.4721  147.0461  157.7176 F       1  UNL1       -0.1328
@<TRIPOS>BOND
     1    16    17    2
     2    17    18    2
     3    17     1    1
     4     1     3    1
     5     3     4   ar
     6     4     5   ar
     7     5     6   ar
     8     9     6    1
     9     9    10    1
    10    10    11    1
    11    11    12    1
    12    13    12    1
    13    13    14    1
    14     6     7   ar
    15     7     8   ar
    16    17    19    1
    17    19    20   ar
    18    20    21   ar
    19    21    22   ar
    20    22    25    1
    21    25    26    1
    22    26    27    1
    23    26    28    1
    24    26    29    1
    25    22    23   ar
    26    23    24   ar
    27     8     3   ar
    28    24    19   ar
    29    13     9    1
    30    14     9    1
    31     1     2    1
    32    11    15    1
@<TRIPOS>MOLECULE
*****
 29 32 0 0 0
SMALL
GASTEIGER

@<TRIPOS>ATOM
      1 N         138.9454  137.9021  163.6329 N.pl3   1  UNL1       -0.2150
      2 H         138.1943  137.2657  163.6423 H       1  UNL1        0.1737
      3 C         139.2025  138.7765  164.8243 C.ar    1  UNL1        0.0648
      4 C         140.2608  139.8376  164.7615 C.ar    1  UNL1        0.0155
      5 C         140.5179  140.7119  165.9528 C.ar    1  UNL1       -0.0029
      6 C         139.7166  140.5251  167.2071 C.ar    1  UNL1       -0.0214
      7 C         138.6583  139.4640  167.2699 C.ar    1  UNL1       -0.0029
      8 C         138.4012  138.5897  166.0785 C.ar    1  UNL1        0.0155
      9 C         139.9738  141.3995  168.3985 C.3     1  UNL1        0.0347
     10 C         139.4201  140.4458  169.4153 C.3     1  UNL1        0.0726
     11 N         139.5502  141.0825  170.7672 N.3     1  UNL1       -0.2972
     12 C         140.1843  142.4297  170.5859 C.3     1  UNL1        0.0689
     13 C         140.4461  142.6257  169.1220 C.3     1  UNL1        0.0211
     14 C         140.5812  142.5360  167.6308 C.3     1  UNL1        0.0072
     15 H         140.1356  140.5024  171.3681 H       1  UNL1        0.1233
     16 O         140.7693  136.9975  163.0373 O.2     1  UNL1       -0.1499
     17 S         139.8325  137.9975  162.4271 S.O2    1  UNL1        0.0736
     18 O         138.8957  138.9975  161.8170 O.2     1  UNL1       -0.1499
     19 C         140.7197  138.0929  161.2213 C.ar    1  UNL1        0.1254
     20 C         142.1851  137.7964  161.3430 C.ar    1  UNL1        0.0233
     21 C         143.0722  137.8918  160.1373 C.ar    1  UNL1        0.0386
     22 C         142.4940  138.2837  158.8099 C.ar    1  UNL1        0.1469
     23 C         141.0287  138.5803  158.6882 C.ar    1  UNL1        0.0386
     24 C         140.1415  138.4849  159.8939 C.ar    1  UNL1        0.0233
     25 O         143.3812  138.3792  157.6041 O.3     1  UNL1       -0.4045
     26 C         143.1031  137.5300  156.3993 C.3     1  UNL1        0.5753
     27 F         142.8250  136.6808  155.1945 F       1  UNL1       -0.1328
     28 F         143.0836  136.3061  157.2664 F       1  UNL1       -0.1328
     29 F         143.1225  138.7539  155.5322 F       1  UNL1       -0.1328
@<TRIPOS>BOND
     1    16    17    2
     2    17    18    2
     3    17     1    1
     4     1     3    1
     5     3     4   ar
     6     4     5   ar
     7     5     6   ar
     8     9     6    1
     9     9    10    1
    10    10    11    1
    11    11    12    1
    12    13    12    1
    13    13    14    1
    14     6     7   ar
    15     7     8   ar
    16    17    19    1
    17    19    20   ar
    18    20    21   ar
    19    21    22   ar
    20    22    25    1
    21    25    26    1
    22    26    27    1
    23    26    28    1
    24    26    29    1
    25    22    23   ar
    26    23    24   ar
    27     8     3   ar
    28    24    19   ar
    29    13     9    1
    30    14     9    1
    31     1     2    1
    32    11    15    1
@<TRIPOS>MOLECULE
*****
 29 32 0 0 0
SMALL
GASTEIGER

@<TRIPOS>ATOM
      1 N         138.9145  137.9228  164.0398 N.pl3   1  UNL1       -0.2150
      2 H         138.1116  137.3531  164.0311 H       1  UNL1        0.1737
      3 C         139.2613  138.7113  165.2678 C.ar    1  UNL1        0.0648
      4 C         138.3062  138.7584  166.4235 C.ar    1  UNL1        0.0155
      5 C         138.6531  139.5469  167.6514 C.ar    1  UNL1       -0.0029
      6 C         139.9550  140.2883  167.7238 C.ar    1  UNL1       -0.0214
      7 C         140.9101  140.2411  166.5682 C.ar    1  UNL1       -0.0029
      8 C         140.5633  139.4527  165.3402 C.ar    1  UNL1        0.0155
      9 C         140.3019  141.0768  168.9518 C.3     1  UNL1        0.0347
     10 C         140.1669  139.9346  169.9148 C.3     1  UNL1        0.0726
     11 N         140.4704  140.4498  171.2904 N.3     1  UNL1       -0.2972
     12 C         140.7929  141.9104  171.1777 C.3     1  UNL1        0.0689
     13 C         140.6887  142.2979  169.7324 C.3     1  UNL1        0.0211
     14 C         140.5093  142.3838  168.2456 C.3     1  UNL1        0.0072
     15 H         141.2686  139.9481  171.6797 H       1  UNL1        0.1233
     16 O         138.9510  139.1253  162.2927 O.2     1  UNL1       -0.1499
     17 S         139.7909  138.0023  162.8251 S.O2    1  UNL1        0.0736
     18 O         140.6307  136.8794  163.3575 O.2     1  UNL1       -0.1499
     19 C         140.6674  138.0818  161.6103 C.ar    1  UNL1        0.1254
     20 C         142.1184  137.7143  161.7072 C.ar    1  UNL1        0.0233
     21 C         142.9949  137.7937  160.4925 C.ar    1  UNL1        0.0386
     22 C         142.4203  138.2408  159.1811 C.ar    1  UNL1        0.1469
     23 C         140.9693  138.6083  159.0842 C.ar    1  UNL1        0.0386
     24 C         140.0928  138.5289  160.2989 C.ar    1  UNL1        0.0233
     25 O         143.2968  138.3203  157.9663 O.3     1  UNL1       -0.4045
     26 C         142.9100  137.5917  156.7135 C.3     1  UNL1        0.5753
     27 F         142.5233  136.8631  155.4606 F       1  UNL1       -0.1328
     28 F         143.0977  136.2808  157.4179 F       1  UNL1       -0.1328
     29 F         142.7224  138.9027  156.0090 F       1  UNL1       -0.1328
@<TRIPOS>BOND
     1    16    17    2
     2    17    18    2
     3    17     1    1
     4     1     3    1
     5     3     4   ar
     6     4     5   ar
     7     5     6   ar
     8     9     6    1
     9     9    10    1
    10    10    11    1
    11    11    12    1
    12    13    12    1
    13    13    14    1
    14     6     7   ar
    15     7     8   ar
    16    17    19    1
    17    19    20   ar
    18    20    21   ar
    19    21    22   ar
    20    22    25    1
    21    25    26    1
    22    26    27    1
    23    26    28    1
    24    26    29    1
    25    22    23   ar
    26    23    24   ar
    27     8     3   ar
    28    24    19   ar
    29    13     9    1
    30    14     9    1
    31     1     2    1
    32    11    15    1
@<TRIPOS>MOLECULE
*****
 29 32 0 0 0
SMALL
GASTEIGER

@<TRIPOS>ATOM
      1 N         137.6639  140.3213  164.3094 N.pl3   1  UNL1       -0.2150
      2 H         136.8862  139.7814  164.5797 H       1  UNL1        0.1737
      3 C         138.6464  140.7903  165.3413 C.ar    1  UNL1        0.0648
      4 C         139.2369  142.1657  165.2441 C.ar    1  UNL1        0.0155
      5 C         140.2195  142.6346  166.2759 C.ar    1  UNL1       -0.0029
      6 C         140.6115  141.7281  167.4049 C.ar    1  UNL1       -0.0214
      7 C         140.0210  140.3527  167.5021 C.ar    1  UNL1       -0.0029
      8 C         139.0385  139.8838  166.4703 C.ar    1  UNL1        0.0155
      9 C         141.5941  142.1971  168.4368 C.3     1  UNL1        0.0347
     10 C         140.6060  142.9795  169.2500 C.3     1  UNL1        0.0726
     11 N         141.3389  143.5916  170.4068 N.3     1  UNL1       -0.2972
     12 C         142.7801  143.1875  170.3084 C.3     1  UNL1        0.0689
     13 C         142.9378  142.3257  169.0909 C.3     1  UNL1        0.0211
     14 C         142.7877  141.5128  167.8392 C.3     1  UNL1        0.0072
     15 H         140.9439  143.2541  171.2845 H       1  UNL1        0.1233
     16 O         136.8124  141.7364  162.9782 O.2     1  UNL1       -0.1499
     17 S         137.8661  140.6748  162.8658 S.O2    1  UNL1        0.0736
     18 O         138.9199  139.6133  162.7535 O.2     1  UNL1       -0.1499
     19 C         138.0684  141.0284  161.4221 C.ar    1  UNL1        0.1254
     20 C         137.8691  139.9880  160.3602 C.ar    1  UNL1        0.0233
     21 C         138.0713  140.3415  158.9165 C.ar    1  UNL1        0.0386
     22 C         138.4729  141.7354  158.5349 C.ar    1  UNL1        0.1469
     23 C         138.6723  142.7758  159.5969 C.ar    1  UNL1        0.0386
     24 C         138.4700  142.4223  161.0405 C.ar    1  UNL1        0.0233
     25 O         138.6752  142.0889  157.0912 O.3     1  UNL1       -0.4045
     26 C         137.7653  143.0793  156.4270 C.3     1  UNL1        0.5753
     27 F         136.8554  144.0697  155.7628 F       1  UNL1       -0.1328
     28 F         136.6119  142.1363  156.6009 F       1  UNL1       -0.1328
     29 F         138.9188  144.0224  156.2531 F       1  UNL1       -0.1328
@<TRIPOS>BOND
     1    16    17    2
     2    17    18    2
     3    17     1    1
     4     1     3    1
     5     3     4   ar
     6     4     5   ar
     7     5     6   ar
     8     9     6    1
     9     9    10    1
    10    10    11    1
    11    11    12    1
    12    13    12    1
    13    13    14    1
    14     6     7   ar
    15     7     8   ar
    16    17    19    1
    17    19    20   ar
    18    20    21   ar
    19    21    22   ar
    20    22    25    1
    21    25    26    1
    22    26    27    1
    23    26    28    1
    24    26    29    1
    25    22    23   ar
    26    23    24   ar
    27     8     3   ar
    28    24    19   ar
    29    13     9    1
    30    14     9    1
    31     1     2    1
    32    11    15    1
@<TRIPOS>MOLECULE
*****
 29 32 0 0 0
SMALL
GASTEIGER

@<TRIPOS>ATOM
      1 N         139.0019  137.8863  163.8196 N.pl3   1  UNL1       -0.2150
      2 H         138.2412  137.2613  163.8262 H       1  UNL1        0.1737
      3 C         139.2837  138.7376  165.0221 C.ar    1  UNL1        0.0648
      4 C         140.4454  139.6864  165.0138 C.ar    1  UNL1        0.0155
      5 C         140.7272  140.5376  166.2163 C.ar    1  UNL1       -0.0029
      6 C         139.8472  140.4400  167.4271 C.ar    1  UNL1       -0.0214
      7 C         138.6854  139.4912  167.4354 C.ar    1  UNL1       -0.0029
      8 C         138.4037  138.6400  166.2329 C.ar    1  UNL1        0.0155
      9 C         140.1290  141.2913  168.6296 C.3     1  UNL1        0.0347
     10 C         139.8031  140.2383  169.6469 C.3     1  UNL1        0.0726
     11 N         140.0044  140.8321  171.0096 N.3     1  UNL1       -0.2972
     12 C         140.4547  142.2521  170.8344 C.3     1  UNL1        0.0689
     13 C         140.5317  142.5359  169.3635 C.3     1  UNL1        0.0211
     14 C         140.5138  142.5222  167.8637 C.3     1  UNL1        0.0072
     15 H         140.7148  140.3037  171.5160 H       1  UNL1        0.1233
     16 O         140.7565  136.8993  163.1511 O.2     1  UNL1       -0.1499
     17 S         139.8790  137.9874  162.6070 S.O2    1  UNL1        0.0736
     18 O         139.0014  139.0754  162.0629 O.2     1  UNL1       -0.1499
     19 C         140.7561  138.0884  161.3943 C.ar    1  UNL1        0.1254
     20 C         140.1854  138.5721  160.0941 C.ar    1  UNL1        0.0233
     21 C         141.0624  138.6731  158.8815 C.ar    1  UNL1        0.0386
     22 C         142.5101  138.2906  158.9690 C.ar    1  UNL1        0.1469
     23 C         143.0808  137.8069  160.2692 C.ar    1  UNL1        0.0386
     24 C         142.2038  137.7058  161.4818 C.ar    1  UNL1        0.0233
     25 O         143.3873  138.3916  157.7563 O.3     1  UNL1       -0.4045
     26 C         143.4603  139.6782  156.9886 C.3     1  UNL1        0.5753
     27 F         143.5332  140.9648  156.2210 F       1  UNL1       -0.1328
     28 F         144.0880  140.3498  158.1739 F       1  UNL1       -0.1328
     29 F         142.8325  139.0066  155.8034 F       1  UNL1       -0.1328
@<TRIPOS>BOND
     1    16    17    2
     2    17    18    2
     3    17     1    1
     4     1     3    1
     5     3     4   ar
     6     4     5   ar
     7     5     6   ar
     8     9     6    1
     9     9    10    1
    10    10    11    1
    11    11    12    1
    12    13    12    1
    13    13    14    1
    14     6     7   ar
    15     7     8   ar
    16    17    19    1
    17    19    20   ar
    18    20    21   ar
    19    21    22   ar
    20    22    25    1
    21    25    26    1
    22    26    27    1
    23    26    28    1
    24    26    29    1
    25    22    23   ar
    26    23    24   ar
    27     8     3   ar
    28    24    19   ar
    29    13     9    1
    30    14     9    1
    31     1     2    1
    32    11    15    1
@<TRIPOS>MOLECULE
*****
 29 32 0 0 0
SMALL
GASTEIGER

@<TRIPOS>ATOM
      1 N         142.1811  137.5938  164.5575 N.pl3   1  UNL1       -0.2150
      2 H         142.6468  136.7713  164.8329 H       1  UNL1        0.1737
      3 C         141.7787  138.6084  165.5865 C.ar    1  UNL1        0.0648
      4 C         140.3971  139.1919  165.5641 C.ar    1  UNL1        0.0155
      5 C         139.9947  140.2064  166.5931 C.ar    1  UNL1       -0.0029
      6 C         140.9740  140.6373  167.6445 C.ar    1  UNL1       -0.0214
      7 C         142.3556  140.0537  167.6668 C.ar    1  UNL1       -0.0029
      8 C         142.7580  139.0393  166.6378 C.ar    1  UNL1        0.0155
      9 C         140.5716  141.6519  168.6735 C.3     1  UNL1        0.0347
     10 C         140.4159  140.6767  169.8026 C.3     1  UNL1        0.0726
     11 N         139.9985  141.4430  171.0227 N.3     1  UNL1       -0.2972
     12 C         139.8963  142.8917  170.6477 C.3     1  UNL1        0.0689
     13 C         140.2505  143.0209  169.1958 C.3     1  UNL1        0.0211
     14 C         140.6432  142.8392  167.7596 C.3     1  UNL1        0.0072
     15 H         140.6931  141.3245  171.7602 H       1  UNL1        0.1233
     16 O         140.8186  136.7675  163.1572 O.2     1  UNL1       -0.1499
     17 S         141.8739  137.8324  163.1088 S.O2    1  UNL1        0.0736
     18 O         142.9292  138.8973  163.0604 O.2     1  UNL1       -0.1499
     19 C         141.5667  138.0711  161.6601 C.ar    1  UNL1        0.1254
     20 C         140.1555  138.3365  161.2264 C.ar    1  UNL1        0.0233
     21 C         139.8483  138.5752  159.7778 C.ar    1  UNL1        0.0386
     22 C         140.9524  138.5484  158.7628 C.ar    1  UNL1        0.1469
     23 C         142.3636  138.2830  159.1964 C.ar    1  UNL1        0.0386
     24 C         142.6708  138.0443  160.6450 C.ar    1  UNL1        0.0233
     25 O         140.6452  138.7871  157.3140 O.3     1  UNL1       -0.4045
     26 C         139.7457  137.8430  156.5727 C.3     1  UNL1        0.5753
     27 F         138.8462  136.8989  155.8313 F       1  UNL1       -0.1328
     28 F         140.7223  136.7288  156.8065 F       1  UNL1       -0.1328
     29 F         138.7690  138.9572  156.3388 F       1  UNL1       -0.1328
@<TRIPOS>BOND
     1    16    17    2
     2    17    18    2
     3    17     1    1
     4     1     3    1
     5     3     4   ar
     6     4     5   ar
     7     5     6   ar
     8     9     6    1
     9     9    10    1
    10    10    11    1
    11    11    12    1
    12    13    12    1
    13    13    14    1
    14     6     7   ar
    15     7     8   ar
    16    17    19    1
    17    19    20   ar
    18    20    21   ar
    19    21    22   ar
    20    22    25    1
    21    25    26    1
    22    26    27    1
    23    26    28    1
    24    26    29    1
    25    22    23   ar
    26    23    24   ar
    27     8     3   ar
    28    24    19   ar
    29    13     9    1
    30    14     9    1
    31     1     2    1
    32    11    15    1
@<TRIPOS>MOLECULE
*****
 29 32 0 0 0
SMALL
GASTEIGER

@<TRIPOS>ATOM
      1 N         141.0461  145.7288  162.6452 N.pl3   1  UNL1       -0.2150
      2 H         141.4360  146.6196  162.7995 H       1  UNL1        0.1737
      3 C         140.8496  144.7866  163.7957 C.ar    1  UNL1        0.0648
      4 C         139.5404  144.7589  164.5272 C.ar    1  UNL1        0.0155
      5 C         139.3439  143.8167  165.6776 C.ar    1  UNL1       -0.0029
      6 C         140.4566  142.9022  166.0966 C.ar    1  UNL1       -0.0214
      7 C         141.7658  142.9299  165.3651 C.ar    1  UNL1       -0.0029
      8 C         141.9623  143.8721  164.2147 C.ar    1  UNL1        0.0155
      9 C         140.2601  141.9599  167.2471 C.3     1  UNL1        0.0347
     10 C         140.4549  142.9853  168.3245 C.3     1  UNL1        0.0726
     11 N         140.3077  142.2986  169.6499 N.3     1  UNL1       -0.2972
     12 C         140.0219  140.8490  169.3917 C.3     1  UNL1        0.0689
     13 C         139.9924  140.6396  167.9067 C.3     1  UNL1        0.0211
     14 C         140.0241  140.7376  166.4103 C.3     1  UNL1        0.0072
     15 H         139.5371  142.7157  170.1721 H       1  UNL1        0.1233
     16 O         142.0132  144.7298  161.0432 O.2     1  UNL1       -0.1499
     17 S         140.6487  145.3139  161.2596 S.O2    1  UNL1        0.0736
     18 O         139.2842  145.8980  161.4760 O.2     1  UNL1       -0.1499
     19 C         140.2512  144.8989  159.8740 C.ar    1  UNL1        0.1254
     20 C         140.4876  145.8241  158.7172 C.ar    1  UNL1        0.0233
     21 C         140.0902  145.4093  157.3316 C.ar    1  UNL1        0.0386
     22 C         139.4564  144.0692  157.1028 C.ar    1  UNL1        0.1469
     23 C         139.2200  143.1440  158.2596 C.ar    1  UNL1        0.0386
     24 C         139.6174  143.5589  159.6452 C.ar    1  UNL1        0.0233
     25 O         139.0589  143.6542  155.7172 O.3     1  UNL1       -0.4045
     26 C         137.9996  144.4189  154.9802 C.3     1  UNL1        0.5753
     27 F         136.9403  145.1835  154.2432 F       1  UNL1       -0.1328
     28 F         136.9550  143.8568  155.8984 F       1  UNL1       -0.1328
     29 F         139.0441  144.9809  154.0620 F       1  UNL1       -0.1328
@<TRIPOS>BOND
     1    16    17    2
     2    17    18    2
     3    17     1    1
     4     1     3    1
     5     3     4   ar
     6     4     5   ar
     7     5     6   ar
     8     9     6    1
     9     9    10    1
    10    10    11    1
    11    11    12    1
    12    13    12    1
    13    13    14    1
    14     6     7   ar
    15     7     8   ar
    16    17    19    1
    17    19    20   ar
    18    20    21   ar
    19    21    22   ar
    20    22    25    1
    21    25    26    1
    22    26    27    1
    23    26    28    1
    24    26    29    1
    25    22    23   ar
    26    23    24   ar
    27     8     3   ar
    28    24    19   ar
    29    13     9    1
    30    14     9    1
    31     1     2    1
    32    11    15    1
@<TRIPOS>MOLECULE
*****
 29 32 0 0 0
SMALL
GASTEIGER

@<TRIPOS>ATOM
      1 N         144.9372  140.2433  162.4776 N.pl3   1  UNL1       -0.2150
      2 H         145.8900  140.4449  162.3334 H       1  UNL1        0.1737
      3 C         144.1123  139.6795  161.3587 C.ar    1  UNL1        0.0648
      4 C         143.4987  138.3173  161.4920 C.ar    1  UNL1        0.0155
      5 C         142.6739  137.7535  160.3732 C.ar    1  UNL1       -0.0029
      6 C         142.4627  138.5520  159.1211 C.ar    1  UNL1       -0.0214
      7 C         143.0763  139.9142  158.9878 C.ar    1  UNL1       -0.0029
      8 C         143.9011  140.4779  160.1066 C.ar    1  UNL1        0.0155
      9 C         141.6378  137.9882  158.0022 C.3     1  UNL1        0.0347
     10 C         140.3719  138.7076  158.3629 C.3     1  UNL1        0.0726
     11 N         139.3184  138.3188  157.3684 N.3     1  UNL1       -0.2972
     12 C         139.9332  137.3593  156.3931 C.3     1  UNL1        0.0689
     13 C         141.3666  137.1549  156.7848 C.3     1  UNL1        0.0211
     14 C         142.7312  137.1510  157.4076 C.3     1  UNL1        0.0072
     15 H         138.9851  139.1473  156.8755 H       1  UNL1        0.1233
     16 O         145.1781  139.4391  164.4257 O.2     1  UNL1       -0.1499
     17 S         144.3104  140.4998  163.8159 S.O2    1  UNL1        0.0736
     18 O         143.4427  141.5606  163.2061 O.2     1  UNL1       -0.1499
     19 C         143.6836  140.7565  165.1543 C.ar    1  UNL1        0.1254
     20 C         143.1268  139.6153  165.9529 C.ar    1  UNL1        0.0233
     21 C         142.4999  139.8719  167.2912 C.ar    1  UNL1        0.0386
     22 C         142.4299  141.2697  167.8310 C.ar    1  UNL1        0.1469
     23 C         142.9867  142.4108  167.0324 C.ar    1  UNL1        0.0386
     24 C         143.6135  142.1542  165.6940 C.ar    1  UNL1        0.0233
     25 O         141.8030  141.5263  169.1694 O.3     1  UNL1       -0.4045
     26 C         141.3447  142.9082  169.5303 C.3     1  UNL1        0.5753
     27 F         140.8863  144.2901  169.8912 F       1  UNL1       -0.1328
     28 F         140.0648  142.6791  168.7823 F       1  UNL1       -0.1328
     29 F         142.6245  143.1374  170.2782 F       1  UNL1       -0.1328
@<TRIPOS>BOND
     1    16    17    2
     2    17    18    2
     3    17     1    1
     4     1     3    1
     5     3     4   ar
     6     4     5   ar
     7     5     6   ar
     8     9     6    1
     9     9    10    1
    10    10    11    1
    11    11    12    1
    12    13    12    1
    13    13    14    1
    14     6     7   ar
    15     7     8   ar
    16    17    19    1
    17    19    20   ar
    18    20    21   ar
    19    21    22   ar
    20    22    25    1
    21    25    26    1
    22    26    27    1
    23    26    28    1
    24    26    29    1
    25    22    23   ar
    26    23    24   ar
    27     8     3   ar
    28    24    19   ar
    29    13     9    1
    30    14     9    1
    31     1     2    1
    32    11    15    1
@<TRIPOS>MOLECULE
*****
 29 32 0 0 0
SMALL
GASTEIGER

@<TRIPOS>ATOM
      1 N         137.9106  140.0404  163.7738 N.pl3   1  UNL1       -0.2150
      2 H         136.9262  140.0374  163.7579 H       1  UNL1        0.1737
      3 C         138.6817  139.6740  162.5403 C.ar    1  UNL1        0.0648
      4 C         138.3845  138.3901  161.8239 C.ar    1  UNL1        0.0155
      5 C         139.1556  138.0237  160.5906 C.ar    1  UNL1       -0.0029
      6 C         140.2238  138.9412  160.0737 C.ar    1  UNL1       -0.0214
      7 C         140.5209  140.2251  160.7901 C.ar    1  UNL1       -0.0029
      8 C         139.7499  140.5914  162.0234 C.ar    1  UNL1        0.0155
      9 C         140.9949  138.5747  158.8403 C.3     1  UNL1        0.0347
     10 C         142.3330  139.0154  159.3552 C.3     1  UNL1        0.0726
     11 N         143.3501  138.7571  158.2835 N.3     1  UNL1       -0.2972
     12 C         142.6406  138.1568  157.1061 C.3     1  UNL1        0.0689
     13 C         141.1850  138.0441  157.4502 C.3     1  UNL1        0.0211
     14 C         139.8180  138.0575  158.0674 C.3     1  UNL1        0.0072
     15 H         144.0588  138.1092  158.6277 H       1  UNL1        0.1233
     16 O         139.0560  138.9818  165.2115 O.2     1  UNL1       -0.1499
     17 S         138.6393  140.4114  165.0312 S.O2    1  UNL1        0.0736
     18 O         138.2226  141.8410  164.8509 O.2     1  UNL1       -0.1499
     19 C         139.3681  140.7824  166.2888 C.ar    1  UNL1        0.1254
     20 C         140.1635  142.0528  166.3476 C.ar    1  UNL1        0.0233
     21 C         140.8922  142.4238  167.6050 C.ar    1  UNL1        0.0386
     22 C         140.8255  141.5245  168.8037 C.ar    1  UNL1        0.1469
     23 C         140.0300  140.2542  168.7449 C.ar    1  UNL1        0.0386
     24 C         139.3013  139.8831  167.4874 C.ar    1  UNL1        0.0233
     25 O         141.5542  141.8956  170.0612 O.3     1  UNL1       -0.4045
     26 C         143.0194  142.2135  170.0130 C.3     1  UNL1        0.5753
     27 F         144.4845  142.5314  169.9647 F       1  UNL1       -0.1328
     28 F         143.3144  140.7951  169.6244 F       1  UNL1       -0.1328
     29 F         142.7244  143.6320  170.4016 F       1  UNL1       -0.1328
@<TRIPOS>BOND
     1    16    17    2
     2    17    18    2
     3    17     1    1
     4     1     3    1
     5     3     4   ar
     6     4     5   ar
     7     5     6   ar
     8     9     6    1
     9     9    10    1
    10    10    11    1
    11    11    12    1
    12    13    12    1
    13    13    14    1
    14     6     7   ar
    15     7     8   ar
    16    17    19    1
    17    19    20   ar
    18    20    21   ar
    19    21    22   ar
    20    22    25    1
    21    25    26    1
    22    26    27    1
    23    26    28    1
    24    26    29    1
    25    22    23   ar
    26    23    24   ar
    27     8     3   ar
    28    24    19   ar
    29    13     9    1
    30    14     9    1
    31     1     2    1
    32    11    15    1
