@<TRIPOS>MOLECULE
*****
 35 39 0 0 0
SMALL
GASTEIGER

@<TRIPOS>ATOM
      1 C         141.1788  140.0217  168.8677 C.3     1  UNL1        0.2054
      2 O         140.1032  139.6404  167.8942 O.3     1  UNL1       -0.4754
      3 C         138.7556  142.5800  164.7649 C.ar    1  UNL1        0.0146
      4 C         139.6911  143.0184  165.8523 C.ar    1  UNL1        0.0016
      5 C         140.1403  142.0386  166.8954 C.ar    1  UNL1        0.0367
      6 C         139.6540  140.6203  166.8511 C.ar    1  UNL1        0.1408
      7 C         138.7184  140.1819  165.7637 C.ar    1  UNL1        0.0662
      8 C         138.2692  141.1618  164.7206 C.ar    1  UNL1        0.1396
      9 F         137.3336  140.7234  163.6331 F       1  UNL1       -0.2044
     10 C         138.3063  143.5599  163.7218 C.3     1  UNL1        0.1138
     11 O         138.4085  143.3570  161.1337 O.2     1  UNL1       -0.2745
     12 C         139.0703  143.6912  162.4376 C.2     1  UNL1        0.2303
     13 N         140.4961  144.1568  162.4574 N.am    1  UNL1       -0.2742
     14 C         141.5460  144.4031  161.4148 C.3     1  UNL1        0.1244
     15 C         142.5125  144.8152  162.4854 C.3     1  UNL1        0.1500
     16 O         143.9383  145.2807  162.5052 O.3     1  UNL1       -0.3810
     17 C         141.4626  144.5688  163.5280 C.3     1  UNL1        0.1244
     18 H         144.2096  145.4525  163.4205 H       1  UNL1        0.2105
     19 C         142.5634  139.4664  168.7110 C.3     1  UNL1        0.0473
     20 C         142.9924  138.8803  167.3986 C.3     1  UNL1        0.0037
     21 C         143.9115  137.9959  166.6093 C.3     1  UNL1        0.0001
     22 C         142.8164  138.7497  165.9148 C.3     1  UNL1        0.0002
     23 C         142.0824  139.1094  164.6570 C.3     1  UNL1        0.0034
     24 C         141.2250  138.0878  163.9707 C.3     1  UNL1        0.0216
     25 C         140.4911  138.4476  162.7129 C.3     1  UNL1        0.0936
     26 N         140.6146  139.8289  162.1415 N.pl3   1  UNL1       -0.2782
     27 C         141.4720  140.8505  162.8279 C.3     1  UNL1        0.0936
     28 C         142.2059  140.4908  164.0856 C.3     1  UNL1        0.0216
     29 C         139.8807  140.1887  160.8838 C.ar    1  UNL1        0.2202
     30 N         140.5928  140.9153  159.7816 N.ar    1  UNL1       -0.2112
     31 C         139.8589  141.2751  158.5239 C.ar    1  UNL1        0.1147
     32 C         138.4128  140.9082  158.3683 C.ar    1  UNL1        0.0960
     33 CL        137.6789  141.2680  157.1106 Cl      1  UNL1       -0.0790
     34 C         137.7006  140.1816  159.4705 C.ar    1  UNL1        0.1147
     35 N         138.4346  139.8218  160.7282 N.ar    1  UNL1       -0.2112
@<TRIPOS>BOND
     1    11    12    2
     2    12    10    1
     3    10     3    1
     4     3     4   ar
     5     4     5   ar
     6     5     6   ar
     7     6     2    1
     8     2     1    1
     9     1    19    1
    10    20    19    1
    11    20    21    1
    12    21    22    1
    13    22    23    1
    14    23    24    1
    15    24    25    1
    16    25    26    1
    17    26    29    1
    18    29    30   ar
    19    30    31   ar
    20    31    32   ar
    21    32    33    1
    22    32    34   ar
    23    34    35   ar
    24    26    27    1
    25    27    28    1
    26     6     7   ar
    27     7     8   ar
    28     8     9    1
    29    12    13   am
    30    13    14    1
    31    14    15    1
    32    15    16    1
    33    15    17    1
    34     8     3   ar
    35    17    13    1
    36    22    20    1
    37    28    23    1
    38    35    29   ar
    39    16    18    1
@<TRIPOS>MOLECULE
*****
 35 39 0 0 0
SMALL
GASTEIGER

@<TRIPOS>ATOM
      1 C         140.8233  139.8222  169.0921 C.3     1  UNL1        0.2054
      2 O         142.2158  140.0128  168.5681 O.3     1  UNL1       -0.4754
      3 C         142.8585  141.7535  164.4685 C.ar    1  UNL1        0.0146
      4 C         142.6592  142.6612  165.6459 C.ar    1  UNL1        0.0016
      5 C         142.4449  142.0810  167.0124 C.ar    1  UNL1        0.0367
      6 C         142.4301  140.5930  167.2015 C.ar    1  UNL1        0.1408
      7 C         142.6295  139.6853  166.0241 C.ar    1  UNL1        0.0662
      8 C         142.8437  140.2655  164.6576 C.ar    1  UNL1        0.1396
      9 F         143.0431  139.3578  163.4802 F       1  UNL1       -0.2044
     10 C         143.0728  142.3337  163.1019 C.3     1  UNL1        0.1138
     11 O         143.6417  144.8168  162.5916 O.2     1  UNL1       -0.2745
     12 C         142.6255  143.7339  162.8030 C.2     1  UNL1        0.2303
     13 N         141.1621  144.0513  162.7155 N.am    1  UNL1       -0.2742
     14 C         140.3595  145.2893  162.4454 C.3     1  UNL1        0.1244
     15 C         139.0924  144.5000  162.5918 C.3     1  UNL1        0.1500
     16 O         137.6290  144.8172  162.5044 O.3     1  UNL1       -0.3810
     17 C         139.8950  143.2619  162.8620 C.3     1  UNL1        0.1244
     18 H         137.1133  144.0116  162.6651 H       1  UNL1        0.2105
     19 C         139.6540  140.3763  168.3333 C.3     1  UNL1        0.0473
     20 C         138.9040  139.5047  167.3701 C.3     1  UNL1        0.0037
     21 C         137.7606  138.5800  167.0742 C.3     1  UNL1        0.0001
     22 C         138.7482  138.9198  165.9977 C.3     1  UNL1        0.0002
     23 C         139.2285  138.7783  164.5837 C.3     1  UNL1        0.0034
     24 C         138.8485  139.8031  163.5564 C.3     1  UNL1        0.0216
     25 C         139.3288  139.6616  162.1425 C.3     1  UNL1        0.0936
     26 N         140.1891  138.4953  161.7558 N.pl3   1  UNL1       -0.2782
     27 C         140.5691  137.4705  162.7830 C.3     1  UNL1        0.0936
     28 C         140.0888  137.6120  164.1970 C.3     1  UNL1        0.0216
     29 C         140.6694  138.3538  160.3418 C.ar    1  UNL1        0.2202
     30 N         139.6952  138.4516  159.2055 N.ar    1  UNL1       -0.2112
     31 C         140.1755  138.3101  157.7915 C.ar    1  UNL1        0.1147
     32 C         141.6300  138.0708  157.5139 C.ar    1  UNL1        0.0960
     33 CL        142.1103  137.9293  156.0999 Cl      1  UNL1       -0.0790
     34 C         142.6042  137.9730  158.6502 C.ar    1  UNL1        0.1147
     35 N         142.1239  138.1145  160.0642 N.ar    1  UNL1       -0.2112
@<TRIPOS>BOND
     1    11    12    2
     2    12    10    1
     3    10     3    1
     4     3     4   ar
     5     4     5   ar
     6     5     6   ar
     7     6     2    1
     8     2     1    1
     9     1    19    1
    10    20    19    1
    11    20    21    1
    12    21    22    1
    13    22    23    1
    14    23    24    1
    15    24    25    1
    16    25    26    1
    17    26    29    1
    18    29    30   ar
    19    30    31   ar
    20    31    32   ar
    21    32    33    1
    22    32    34   ar
    23    34    35   ar
    24    26    27    1
    25    27    28    1
    26     6     7   ar
    27     7     8   ar
    28     8     9    1
    29    12    13   am
    30    13    14    1
    31    14    15    1
    32    15    16    1
    33    15    17    1
    34     8     3   ar
    35    17    13    1
    36    22    20    1
    37    28    23    1
    38    35    29   ar
    39    16    18    1
@<TRIPOS>MOLECULE
*****
 35 39 0 0 0
SMALL
GASTEIGER

@<TRIPOS>ATOM
      1 C         140.7791  140.0030  169.0309 C.3     1  UNL1        0.2054
      2 O         141.6582  141.0972  168.5020 O.3     1  UNL1       -0.4754
      3 C         144.0602  140.4400  164.7539 C.ar    1  UNL1        0.0146
      4 C         143.4918  139.2668  165.4958 C.ar    1  UNL1        0.0016
      5 C         142.6911  139.4859  166.7451 C.ar    1  UNL1        0.0367
      6 C         142.4589  140.8782  167.2526 C.ar    1  UNL1        0.1408
      7 C         143.0273  142.0514  166.5107 C.ar    1  UNL1        0.0662
      8 C         143.8279  141.8323  165.2614 C.ar    1  UNL1        0.1396
      9 F         144.3963  143.0056  164.5194 F       1  UNL1       -0.2044
     10 C         144.8609  140.2209  163.5045 C.3     1  UNL1        0.1138
     11 O         143.7129  138.5615  161.8679 O.2     1  UNL1       -0.2745
     12 C         144.1633  139.9523  162.2041 C.2     1  UNL1        0.2303
     13 N         143.9160  141.0744  161.2398 N.am    1  UNL1       -0.2742
     14 C         143.2726  141.1904  159.8899 C.3     1  UNL1        0.1244
     15 C         143.5664  142.6613  159.8761 C.3     1  UNL1        0.1500
     16 O         143.3191  143.7834  158.9119 O.3     1  UNL1       -0.3810
     17 C         144.2099  142.5453  161.2261 C.3     1  UNL1        0.1244
     18 H         143.6699  144.6093  159.2802 H       1  UNL1        0.2105
     19 C         139.3109  140.0057  168.7233 C.3     1  UNL1        0.0473
     20 C         138.8280  139.5840  167.3672 C.3     1  UNL1        0.0037
     21 C         138.1214  138.5936  166.4899 C.3     1  UNL1        0.0001
     22 C         138.6983  139.8441  165.8956 C.3     1  UNL1        0.0002
     23 C         138.9565  140.7163  164.7029 C.3     1  UNL1        0.0034
     24 C         137.8613  141.5836  164.1568 C.3     1  UNL1        0.0216
     25 C         138.1196  142.4558  162.9641 C.3     1  UNL1        0.0936
     26 N         139.4730  142.4607  162.3175 N.pl3   1  UNL1       -0.2782
     27 C         140.5682  141.5934  162.8635 C.3     1  UNL1        0.0936
     28 C         140.3099  140.7212  164.0563 C.3     1  UNL1        0.0216
     29 C         139.7312  143.3329  161.1247 C.ar    1  UNL1        0.2202
     30 N         139.4645  142.8127  159.7434 N.ar    1  UNL1       -0.2112
     31 C         139.7227  143.6849  158.5507 C.ar    1  UNL1        0.1147
     32 C         140.2477  145.0773  158.7393 C.ar    1  UNL1        0.0960
     33 CL        140.5059  145.9495  157.5466 Cl      1  UNL1       -0.0790
     34 C         140.5144  145.5975  160.1206 C.ar    1  UNL1        0.1147
     35 N         140.2561  144.7253  161.3134 N.ar    1  UNL1       -0.2112
@<TRIPOS>BOND
     1    11    12    2
     2    12    10    1
     3    10     3    1
     4     3     4   ar
     5     4     5   ar
     6     5     6   ar
     7     6     2    1
     8     2     1    1
     9     1    19    1
    10    20    19    1
    11    20    21    1
    12    21    22    1
    13    22    23    1
    14    23    24    1
    15    24    25    1
    16    25    26    1
    17    26    29    1
    18    29    30   ar
    19    30    31   ar
    20    31    32   ar
    21    32    33    1
    22    32    34   ar
    23    34    35   ar
    24    26    27    1
    25    27    28    1
    26     6     7   ar
    27     7     8   ar
    28     8     9    1
    29    12    13   am
    30    13    14    1
    31    14    15    1
    32    15    16    1
    33    15    17    1
    34     8     3   ar
    35    17    13    1
    36    22    20    1
    37    28    23    1
    38    35    29   ar
    39    16    18    1
@<TRIPOS>MOLECULE
*****
 35 39 0 0 0
SMALL
GASTEIGER

@<TRIPOS>ATOM
      1 C         142.2714  140.8652  170.2663 C.3     1  UNL1        0.2054
      2 O         142.5928  139.8844  169.1779 O.3     1  UNL1       -0.4754
      3 C         143.4492  141.3491  165.0101 C.ar    1  UNL1        0.0146
      4 C         143.3204  142.3295  166.1379 C.ar    1  UNL1        0.0016
      5 C         143.0350  141.8413  167.5272 C.ar    1  UNL1        0.0367
      6 C         142.8783  140.3726  167.7886 C.ar    1  UNL1        0.1408
      7 C         143.0070  139.3921  166.6608 C.ar    1  UNL1        0.0662
      8 C         143.2925  139.8804  165.2715 C.ar    1  UNL1        0.1396
      9 F         143.4213  138.8999  164.1436 F       1  UNL1       -0.2044
     10 C         143.7347  141.8373  163.6207 C.3     1  UNL1        0.1138
     11 O         142.1486  140.9404  161.7688 O.2     1  UNL1       -0.2745
     12 C         142.6068  142.0588  162.6571 C.2     1  UNL1        0.2303
     13 N         141.9371  143.3990  162.5816 N.am    1  UNL1       -0.2742
     14 C         140.8160  143.9803  161.7723 C.3     1  UNL1        0.1244
     15 C         140.9900  145.2941  162.4750 C.3     1  UNL1        0.1500
     16 O         140.3203  146.6342  162.3996 O.3     1  UNL1       -0.3810
     17 C         142.1111  144.7127  163.2844 C.3     1  UNL1        0.1244
     18 H         140.7343  147.2387  163.0353 H       1  UNL1        0.2105
     19 C         140.9563  140.7854  170.9836 C.3     1  UNL1        0.0473
     20 C         139.7142  140.4072  170.2327 C.3     1  UNL1        0.0037
     21 C         138.2600  140.0392  170.2286 C.3     1  UNL1        0.0001
     22 C         139.0167  140.1203  168.9361 C.3     1  UNL1        0.0002
     23 C         139.0510  140.0014  167.4412 C.3     1  UNL1        0.0034
     24 C         139.6789  141.0859  166.6168 C.3     1  UNL1        0.0216
     25 C         139.7131  140.9670  165.1219 C.3     1  UNL1        0.0936
     26 N         139.1194  139.7637  164.4514 N.pl3   1  UNL1       -0.2782
     27 C         138.4915  138.6793  165.2758 C.3     1  UNL1        0.0936
     28 C         138.4573  138.7982  166.7707 C.3     1  UNL1        0.0216
     29 C         139.1537  139.6449  162.9565 C.ar    1  UNL1        0.2202
     30 N         139.6254  138.3733  162.3158 N.ar    1  UNL1       -0.2112
     31 C         139.6597  138.2545  160.8209 C.ar    1  UNL1        0.1147
     32 C         139.2221  139.4072  159.9667 C.ar    1  UNL1        0.0960
     33 CL        139.2563  139.2883  158.4718 Cl      1  UNL1       -0.0790
     34 C         138.7503  140.6788  160.6074 C.ar    1  UNL1        0.1147
     35 N         138.7161  140.7976  162.1023 N.ar    1  UNL1       -0.2112
@<TRIPOS>BOND
     1    11    12    2
     2    12    10    1
     3    10     3    1
     4     3     4   ar
     5     4     5   ar
     6     5     6   ar
     7     6     2    1
     8     2     1    1
     9     1    19    1
    10    20    19    1
    11    20    21    1
    12    21    22    1
    13    22    23    1
    14    23    24    1
    15    24    25    1
    16    25    26    1
    17    26    29    1
    18    29    30   ar
    19    30    31   ar
    20    31    32   ar
    21    32    33    1
    22    32    34   ar
    23    34    35   ar
    24    26    27    1
    25    27    28    1
    26     6     7   ar
    27     7     8   ar
    28     8     9    1
    29    12    13   am
    30    13    14    1
    31    14    15    1
    32    15    16    1
    33    15    17    1
    34     8     3   ar
    35    17    13    1
    36    22    20    1
    37    28    23    1
    38    35    29   ar
    39    16    18    1
@<TRIPOS>MOLECULE
*****
 35 39 0 0 0
SMALL
GASTEIGER

@<TRIPOS>ATOM
      1 C         140.6770  140.7703  168.8893 C.3     1  UNL1        0.2054
      2 O         140.9913  141.8526  167.8995 O.3     1  UNL1       -0.4754
      3 C         144.1458  141.1842  164.7607 C.ar    1  UNL1        0.0146
      4 C         143.6498  140.0318  165.5828 C.ar    1  UNL1        0.0016
      5 C         142.5983  140.2546  166.6290 C.ar    1  UNL1        0.0367
      6 C         142.0428  141.6298  166.8532 C.ar    1  UNL1        0.1408
      7 C         142.5388  142.7822  166.0311 C.ar    1  UNL1        0.0662
      8 C         143.5903  142.5594  164.9849 C.ar    1  UNL1        0.1396
      9 F         144.0864  143.7119  164.1627 F       1  UNL1       -0.2044
     10 C         145.1974  140.9615  163.7144 C.3     1  UNL1        0.1138
     11 O         145.0117  142.1655  161.4197 O.2     1  UNL1       -0.2745
     12 C         144.8188  140.9402  162.2632 C.2     1  UNL1        0.2303
     13 N         144.2472  139.6936  161.6554 N.am    1  UNL1       -0.2742
     14 C         143.7672  139.3037  160.2888 C.3     1  UNL1        0.1244
     15 C         143.4388  137.9307  160.7959 C.3     1  UNL1        0.1500
     16 O         142.8673  136.6842  160.1881 O.3     1  UNL1       -0.3810
     17 C         143.9188  138.3207  162.1625 C.3     1  UNL1        0.1244
     18 H         142.8095  135.9917  160.8649 H       1  UNL1        0.2105
     19 C         139.4446  139.9324  168.7185 C.3     1  UNL1        0.0473
     20 C         138.9216  139.6393  167.3435 C.3     1  UNL1        0.0037
     21 C         138.0701  138.8121  166.4266 C.3     1  UNL1        0.0001
     22 C         138.8672  139.9587  165.8790 C.3     1  UNL1        0.0002
     23 C         139.2959  140.8052  164.7173 C.3     1  UNL1        0.0034
     24 C         140.3459  140.3035  163.7708 C.3     1  UNL1        0.0216
     25 C         140.7747  141.1500  162.6091 C.3     1  UNL1        0.0936
     26 N         140.1534  142.4982  162.3938 N.pl3   1  UNL1       -0.2782
     27 C         139.1034  142.9999  163.3402 C.3     1  UNL1        0.0936
     28 C         138.6746  142.1534  164.5019 C.3     1  UNL1        0.0216
     29 C         140.5822  143.3447  161.2320 C.ar    1  UNL1        0.2202
     30 N         139.8056  144.5774  160.8753 N.ar    1  UNL1       -0.2112
     31 C         140.2344  145.4239  159.7135 C.ar    1  UNL1        0.1147
     32 C         141.4397  145.0376  158.9086 C.ar    1  UNL1        0.0960
     33 CL        141.8684  145.8841  157.7468 Cl      1  UNL1       -0.0790
     34 C         142.2162  143.8049  159.2653 C.ar    1  UNL1        0.1147
     35 N         141.7875  142.9584  160.4271 N.ar    1  UNL1       -0.2112
@<TRIPOS>BOND
     1    11    12    2
     2    12    10    1
     3    10     3    1
     4     3     4   ar
     5     4     5   ar
     6     5     6   ar
     7     6     2    1
     8     2     1    1
     9     1    19    1
    10    20    19    1
    11    20    21    1
    12    21    22    1
    13    22    23    1
    14    23    24    1
    15    24    25    1
    16    25    26    1
    17    26    29    1
    18    29    30   ar
    19    30    31   ar
    20    31    32   ar
    21    32    33    1
    22    32    34   ar
    23    34    35   ar
    24    26    27    1
    25    27    28    1
    26     6     7   ar
    27     7     8   ar
    28     8     9    1
    29    12    13   am
    30    13    14    1
    31    14    15    1
    32    15    16    1
    33    15    17    1
    34     8     3   ar
    35    17    13    1
    36    22    20    1
    37    28    23    1
    38    35    29   ar
    39    16    18    1
@<TRIPOS>MOLECULE
*****
 35 39 0 0 0
SMALL
GASTEIGER

@<TRIPOS>ATOM
      1 C         141.0032  140.0573  168.4944 C.3     1  UNL1        0.2054
      2 O         141.8111  139.3286  167.4619 O.3     1  UNL1       -0.4754
      3 C         143.4757  141.5556  163.9236 C.ar    1  UNL1        0.0146
      4 C         142.7707  140.2471  163.7221 C.ar    1  UNL1        0.0016
      5 C         142.2158  139.5048  164.9015 C.ar    1  UNL1        0.0367
      6 C         142.3660  140.0710  166.2824 C.ar    1  UNL1        0.1408
      7 C         143.0711  141.3795  166.4839 C.ar    1  UNL1        0.0662
      8 C         143.6259  142.1218  165.3045 C.ar    1  UNL1        0.1396
      9 F         144.3310  143.4304  165.5060 F       1  UNL1       -0.2044
     10 C         144.0306  142.2980  162.7442 C.3     1  UNL1        0.1138
     11 O         144.0659  144.8878  162.5396 O.2     1  UNL1       -0.2745
     12 C         143.3860  143.5741  162.2903 C.2     1  UNL1        0.2303
     13 N         142.0615  143.5366  161.5871 N.am    1  UNL1       -0.2742
     14 C         141.1395  144.5673  161.0064 C.3     1  UNL1        0.1244
     15 C         140.1885  143.4835  160.5927 C.3     1  UNL1        0.1500
     16 O         138.8641  143.4459  159.8896 O.3     1  UNL1       -0.3810
     17 C         141.1107  142.4528  161.1735 C.3     1  UNL1        0.1244
     18 H         138.5662  142.5262  159.8101 H       1  UNL1        0.2105
     19 C         139.5731  140.4127  168.2142 C.3     1  UNL1        0.0473
     20 C         138.7404  139.5311  167.3313 C.3     1  UNL1        0.0037
     21 C         137.7071  138.4553  167.1730 C.3     1  UNL1        0.0001
     22 C         138.3314  139.0800  165.9605 C.3     1  UNL1        0.0002
     23 C         138.4556  139.1802  164.4690 C.3     1  UNL1        0.0034
     24 C         139.0029  138.0259  163.6828 C.3     1  UNL1        0.0216
     25 C         139.1271  138.1261  162.1913 C.3     1  UNL1        0.0936
     26 N         138.7041  139.3805  161.4861 N.pl3   1  UNL1       -0.2782
     27 C         138.1569  140.5348  162.2723 C.3     1  UNL1        0.0936
     28 C         138.0326  140.4346  163.7638 C.3     1  UNL1        0.0216
     29 C         138.8284  139.4807  159.9946 C.ar    1  UNL1        0.2202
     30 N         139.6936  138.5098  159.2472 N.ar    1  UNL1       -0.2112
     31 C         139.8178  138.6099  157.7557 C.ar    1  UNL1        0.1147
     32 C         139.0769  139.6810  157.0116 C.ar    1  UNL1        0.0960
     33 CL        139.2011  139.7812  155.5201 Cl      1  UNL1       -0.0790
     34 C         138.2117  140.6520  157.7590 C.ar    1  UNL1        0.1147
     35 N         138.0874  140.5518  159.2505 N.ar    1  UNL1       -0.2112
@<TRIPOS>BOND
     1    11    12    2
     2    12    10    1
     3    10     3    1
     4     3     4   ar
     5     4     5   ar
     6     5     6   ar
     7     6     2    1
     8     2     1    1
     9     1    19    1
    10    20    19    1
    11    20    21    1
    12    21    22    1
    13    22    23    1
    14    23    24    1
    15    24    25    1
    16    25    26    1
    17    26    29    1
    18    29    30   ar
    19    30    31   ar
    20    31    32   ar
    21    32    33    1
    22    32    34   ar
    23    34    35   ar
    24    26    27    1
    25    27    28    1
    26     6     7   ar
    27     7     8   ar
    28     8     9    1
    29    12    13   am
    30    13    14    1
    31    14    15    1
    32    15    16    1
    33    15    17    1
    34     8     3   ar
    35    17    13    1
    36    22    20    1
    37    28    23    1
    38    35    29   ar
    39    16    18    1
@<TRIPOS>MOLECULE
*****
 35 39 0 0 0
SMALL
GASTEIGER

@<TRIPOS>ATOM
      1 C         139.0606  139.6289  168.4914 C.3     1  UNL1        0.2054
      2 O         138.0969  138.9162  167.5896 O.3     1  UNL1       -0.4754
      3 C         138.6889  139.0230  163.1300 C.ar    1  UNL1        0.0146
      4 C         138.9375  137.7536  163.8894 C.ar    1  UNL1        0.0016
      5 C         138.7402  137.7180  165.3759 C.ar    1  UNL1        0.0367
      6 C         138.2942  138.9518  166.1030 C.ar    1  UNL1        0.1408
      7 C         138.0456  140.2212  165.3437 C.ar    1  UNL1        0.0662
      8 C         138.2429  140.2569  163.8572 C.ar    1  UNL1        0.1396
      9 F         137.9943  141.5263  163.0978 F       1  UNL1       -0.2044
     10 C         138.8862  139.0587  161.6434 C.3     1  UNL1        0.1138
     11 O         139.8439  141.1021  160.3562 O.2     1  UNL1       -0.2745
     12 C         140.0557  139.7943  161.0595 C.2     1  UNL1        0.2303
     13 N         141.4372  139.2221  161.1789 N.am    1  UNL1       -0.2742
     14 C         142.8049  139.6517  160.7379 C.3     1  UNL1        0.1244
     15 C         143.3908  138.4129  161.3479 C.3     1  UNL1        0.1500
     16 O         144.7722  137.8406  161.4673 O.3     1  UNL1       -0.3810
     17 C         142.0230  137.9832  161.7889 C.3     1  UNL1        0.1244
     18 H         144.7328  136.9980  161.9462 H       1  UNL1        0.2105
     19 C         140.3470  140.1673  167.9387 C.3     1  UNL1        0.0473
     20 C         140.4640  141.6221  167.5926 C.3     1  UNL1        0.0037
     21 C         140.5269  143.0583  168.0209 C.3     1  UNL1        0.0001
     22 C         140.6036  142.7058  166.5650 C.3     1  UNL1        0.0002
     23 C         140.7285  143.1279  165.1310 C.3     1  UNL1        0.0034
     24 C         141.6450  142.3825  164.2068 C.3     1  UNL1        0.0216
     25 C         141.7699  142.8046  162.7729 C.3     1  UNL1        0.0936
     26 N         140.9782  143.9722  162.2631 N.pl3   1  UNL1       -0.2782
     27 C         140.0616  144.7176  163.1873 C.3     1  UNL1        0.0936
     28 C         139.9368  144.2955  164.6212 C.3     1  UNL1        0.0216
     29 C         141.1031  144.3943  160.8292 C.ar    1  UNL1        0.2202
     30 N         142.2960  143.9716  160.0241 N.ar    1  UNL1       -0.2112
     31 C         142.4208  144.3937  158.5901 C.ar    1  UNL1        0.1147
     32 C         141.3528  145.2385  157.9612 C.ar    1  UNL1        0.0960
     33 CL        141.4777  145.6607  156.5273 Cl      1  UNL1       -0.0790
     34 C         140.1599  145.6612  158.7663 C.ar    1  UNL1        0.1147
     35 N         140.0350  145.2391  160.2003 N.ar    1  UNL1       -0.2112
@<TRIPOS>BOND
     1    11    12    2
     2    12    10    1
     3    10     3    1
     4     3     4   ar
     5     4     5   ar
     6     5     6   ar
     7     6     2    1
     8     2     1    1
     9     1    19    1
    10    20    19    1
    11    20    21    1
    12    21    22    1
    13    22    23    1
    14    23    24    1
    15    24    25    1
    16    25    26    1
    17    26    29    1
    18    29    30   ar
    19    30    31   ar
    20    31    32   ar
    21    32    33    1
    22    32    34   ar
    23    34    35   ar
    24    26    27    1
    25    27    28    1
    26     6     7   ar
    27     7     8   ar
    28     8     9    1
    29    12    13   am
    30    13    14    1
    31    14    15    1
    32    15    16    1
    33    15    17    1
    34     8     3   ar
    35    17    13    1
    36    22    20    1
    37    28    23    1
    38    35    29   ar
    39    16    18    1
@<TRIPOS>MOLECULE
*****
 35 39 0 0 0
SMALL
GASTEIGER

@<TRIPOS>ATOM
      1 C         142.2954  140.9879  167.8192 C.3     1  UNL1        0.2054
      2 O         140.8126  141.1908  167.9197 O.3     1  UNL1       -0.4754
      3 C         138.4971  142.6680  164.3551 C.ar    1  UNL1        0.0146
      4 C         139.3175  143.6266  165.1662 C.ar    1  UNL1        0.0016
      5 C         140.0893  143.1342  166.3544 C.ar    1  UNL1        0.0367
      6 C         140.0407  141.6832  166.7314 C.ar    1  UNL1        0.1408
      7 C         139.2203  140.7245  165.9203 C.ar    1  UNL1        0.0662
      8 C         138.4485  141.2169  164.7321 C.ar    1  UNL1        0.1396
      9 F         137.6281  140.2583  163.9210 F       1  UNL1       -0.2044
     10 C         137.7253  143.1603  163.1668 C.3     1  UNL1        0.1138
     11 O         137.6086  141.6765  161.0374 O.2     1  UNL1       -0.2745
     12 C         138.1978  142.8390  161.7799 C.2     1  UNL1        0.2303
     13 N         139.2595  143.6802  161.1356 N.am    1  UNL1       -0.2742
     14 C         139.9626  143.6692  159.8107 C.3     1  UNL1        0.1244
     15 C         140.7610  144.8698  160.2244 C.3     1  UNL1        0.1500
     16 O         141.8227  145.7110  159.5800 O.3     1  UNL1       -0.3810
     17 C         140.0579  144.8808  161.5493 C.3     1  UNL1        0.1244
     18 H         142.0926  146.4146  160.1907 H       1  UNL1        0.2105
     19 C         143.2070  142.1715  167.6844 C.3     1  UNL1        0.0473
     20 C         143.6752  142.6068  166.3275 C.3     1  UNL1        0.0037
     21 C         144.4465  143.5599  165.4634 C.3     1  UNL1        0.0001
     22 C         143.7150  142.4077  164.8413 C.3     1  UNL1        0.0002
     23 C         143.3155  141.6274  163.6241 C.3     1  UNL1        0.0034
     24 C         144.3094  140.7288  162.9498 C.3     1  UNL1        0.0216
     25 C         143.9099  139.9485  161.7326 C.3     1  UNL1        0.0936
     26 N         142.5167  140.0669  161.1896 N.pl3   1  UNL1       -0.2782
     27 C         141.5229  140.9655  161.8639 C.3     1  UNL1        0.0936
     28 C         141.9223  141.7458  163.0812 C.3     1  UNL1        0.0216
     29 C         142.1173  139.2866  159.9724 C.ar    1  UNL1        0.2202
     30 N         143.1674  138.6439  159.1156 N.ar    1  UNL1       -0.2112
     31 C         142.7679  137.8637  157.8983 C.ar    1  UNL1        0.1147
     32 C         141.3184  137.7261  157.5379 C.ar    1  UNL1        0.0960
     33 CL        140.9190  136.9459  156.3207 Cl      1  UNL1       -0.0790
     34 C         140.2683  138.3688  158.3947 C.ar    1  UNL1        0.1147
     35 N         140.6678  139.1491  159.6120 N.ar    1  UNL1       -0.2112
@<TRIPOS>BOND
     1    11    12    2
     2    12    10    1
     3    10     3    1
     4     3     4   ar
     5     4     5   ar
     6     5     6   ar
     7     6     2    1
     8     2     1    1
     9     1    19    1
    10    20    19    1
    11    20    21    1
    12    21    22    1
    13    22    23    1
    14    23    24    1
    15    24    25    1
    16    25    26    1
    17    26    29    1
    18    29    30   ar
    19    30    31   ar
    20    31    32   ar
    21    32    33    1
    22    32    34   ar
    23    34    35   ar
    24    26    27    1
    25    27    28    1
    26     6     7   ar
    27     7     8   ar
    28     8     9    1
    29    12    13   am
    30    13    14    1
    31    14    15    1
    32    15    16    1
    33    15    17    1
    34     8     3   ar
    35    17    13    1
    36    22    20    1
    37    28    23    1
    38    35    29   ar
    39    16    18    1
@<TRIPOS>MOLECULE
*****
 35 39 0 0 0
SMALL
GASTEIGER

@<TRIPOS>ATOM
      1 C         140.1406  141.3043  168.2945 C.3     1  UNL1        0.2054
      2 O         141.6311  141.4344  168.4011 O.3     1  UNL1       -0.4754
      3 C         144.1724  141.3018  164.6898 C.ar    1  UNL1        0.0146
      4 C         143.3700  140.1002  165.0926 C.ar    1  UNL1        0.0016
      5 C         142.5229  140.1444  166.3297 C.ar    1  UNL1        0.0367
      6 C         142.4783  141.3902  167.1640 C.ar    1  UNL1        0.1408
      7 C         143.2807  142.5918  166.7612 C.ar    1  UNL1        0.0662
      8 C         144.1278  142.5476  165.5241 C.ar    1  UNL1        0.1396
      9 F         144.9302  143.7492  165.1212 F       1  UNL1       -0.2044
     10 C         145.0195  141.2577  163.4526 C.3     1  UNL1        0.1138
     11 O         144.4841  139.9759  161.2570 O.2     1  UNL1       -0.2745
     12 C         144.3710  141.2109  162.1009 C.2     1  UNL1        0.2303
     13 N         143.6095  142.3993  161.5929 N.am    1  UNL1       -0.2742
     14 C         142.8524  142.7162  160.3374 C.3     1  UNL1        0.1244
     15 C         142.5325  144.0798  160.8745 C.3     1  UNL1        0.1500
     16 O         141.7710  145.2680  160.3666 O.3     1  UNL1       -0.3810
     17 C         143.2896  143.7627  162.1300 C.3     1  UNL1        0.1244
     18 H         141.7953  145.9753  161.0300 H       1  UNL1        0.2105
     19 C         139.4735  140.0087  168.6501 C.3     1  UNL1        0.0473
     20 C         138.6752  139.2683  167.6183 C.3     1  UNL1        0.0037
     21 C         137.4586  138.4771  167.2388 C.3     1  UNL1        0.0001
     22 C         138.5090  138.7771  166.2108 C.3     1  UNL1        0.0002
     23 C         139.0195  138.6666  164.8047 C.3     1  UNL1        0.0034
     24 C         138.4548  139.5480  163.7304 C.3     1  UNL1        0.0216
     25 C         138.9653  139.4376  162.3243 C.3     1  UNL1        0.0936
     26 N         140.0405  138.4458  161.9925 N.pl3   1  UNL1       -0.2782
     27 C         140.6052  137.5644  163.0668 C.3     1  UNL1        0.0936
     28 C         140.0947  137.6748  164.4729 C.3     1  UNL1        0.0216
     29 C         140.5510  138.3353  160.5864 C.ar    1  UNL1        0.2202
     30 N         139.6063  138.4876  159.4313 N.ar    1  UNL1       -0.2112
     31 C         140.1168  138.3772  158.0252 C.ar    1  UNL1        0.1147
     32 C         141.5720  138.1144  157.7741 C.ar    1  UNL1        0.0960
     33 CL        142.0825  138.0040  156.3680 Cl      1  UNL1       -0.0790
     34 C         142.5168  137.9621  158.9291 C.ar    1  UNL1        0.1147
     35 N         142.0063  138.0725  160.3353 N.ar    1  UNL1       -0.2112
@<TRIPOS>BOND
     1    11    12    2
     2    12    10    1
     3    10     3    1
     4     3     4   ar
     5     4     5   ar
     6     5     6   ar
     7     6     2    1
     8     2     1    1
     9     1    19    1
    10    20    19    1
    11    20    21    1
    12    21    22    1
    13    22    23    1
    14    23    24    1
    15    24    25    1
    16    25    26    1
    17    26    29    1
    18    29    30   ar
    19    30    31   ar
    20    31    32   ar
    21    32    33    1
    22    32    34   ar
    23    34    35   ar
    24    26    27    1
    25    27    28    1
    26     6     7   ar
    27     7     8   ar
    28     8     9    1
    29    12    13   am
    30    13    14    1
    31    14    15    1
    32    15    16    1
    33    15    17    1
    34     8     3   ar
    35    17    13    1
    36    22    20    1
    37    28    23    1
    38    35    29   ar
    39    16    18    1
