@<TRIPOS>MOLECULE
*****
 30 33 0 0 0
SMALL
GASTEIGER

@<TRIPOS>ATOM
      1 O         140.7514  136.8479  162.7904 O.2     1  UNL1       -0.2665
      2 C         139.8551  137.9977  163.1434 C.ar    1  UNL1        0.2679
      3 C         139.2181  138.0632  164.4997 C.ar    1  UNL1        0.0980
      4 C         138.3218  139.2130  164.8527 C.ar    1  UNL1        0.1453
      5 C         138.0626  140.2973  163.8492 C.ar    1  UNL1        0.0561
      6 C         138.6996  140.2318  162.4928 C.ar    1  UNL1        0.0860
      7 N         139.5959  139.0820  162.1399 N.ar    1  UNL1       -0.2729
      8 C         140.2329  139.0166  160.7834 C.ar    1  UNL1        0.0671
      9 C         141.6584  139.4471  160.6028 C.ar    1  UNL1        0.0207
     10 C         142.2955  139.3817  159.2464 C.ar    1  UNL1        0.0384
     11 C         141.5070  138.8857  158.0706 C.ar    1  UNL1        0.1387
     12 C         140.0816  138.4552  158.2512 C.ar    1  UNL1        0.0384
     13 C         139.4445  138.5206  159.6077 C.ar    1  UNL1        0.0207
     14 O         142.1441  138.8203  156.7142 O.3     1  UNL1       -0.4740
     15 C         142.3999  137.4905  156.0690 C.3     1  UNL1        0.2226
     16 C         142.9684  136.3619  156.8771 C.3     1  UNL1        0.1200
     17 N         142.6425  134.9428  156.5165 N.3     1  UNL1       -0.2696
     18 C         141.6740  134.5018  155.4593 C.3     1  UNL1        0.0722
     19 C         141.6608  133.0020  155.4393 C.3     1  UNL1        0.0188
     20 C         142.6211  132.5160  156.4841 C.3     1  UNL1        0.0188
     21 C         143.2278  133.7155  157.1499 C.3     1  UNL1        0.0722
     22 O         137.6848  139.2784  166.2092 O.3     1  UNL1       -0.4704
     23 C         138.5146  139.0569  167.4389 C.3     1  UNL1        0.2320
     24 C         139.2272  140.2102  168.0807 C.ar    1  UNL1        0.0212
     25 C         139.1377  140.4156  169.5639 C.ar    1  UNL1        0.0002
     26 C         139.8504  141.5691  170.2056 C.ar    1  UNL1        0.0112
     27 C         140.6525  142.5170  169.3642 C.ar    1  UNL1        0.0577
     28 CL        141.3651  143.6703  170.0060 Cl      1  UNL1       -0.0822
     29 C         140.7420  142.3116  167.8810 C.ar    1  UNL1        0.0112
     30 C         140.0294  141.1582  167.2393 C.ar    1  UNL1        0.0002
@<TRIPOS>BOND
     1     1     2    2
     2     2     3   ar
     3     3     4   ar
     4     4    22    1
     5    22    23    1
     6    23    24    1
     7    24    25   ar
     8    25    26   ar
     9    26    27   ar
    10    27    28    1
    11    27    29   ar
    12    29    30   ar
    13     4     5   ar
    14     5     6   ar
    15     6     7   ar
    16     7     8    1
    17     8     9   ar
    18     9    10   ar
    19    10    11   ar
    20    11    14    1
    21    14    15    1
    22    15    16    1
    23    16    17    1
    24    17    18    1
    25    18    19    1
    26    19    20    1
    27    20    21    1
    28    11    12   ar
    29    12    13   ar
    30     7     2   ar
    31    13     8   ar
    32    30    24   ar
    33    21    17    1
@<TRIPOS>MOLECULE
*****
 30 33 0 0 0
SMALL
GASTEIGER

@<TRIPOS>ATOM
      1 O         139.6238  137.6164  161.7508 O.2     1  UNL1       -0.2665
      2 C         139.1705  139.0082  161.4231 C.ar    1  UNL1        0.2679
      3 C         138.3348  139.7754  162.4044 C.ar    1  UNL1        0.0980
      4 C         137.8815  141.1672  162.0767 C.ar    1  UNL1        0.1453
      5 C         138.2640  141.7919  160.7677 C.ar    1  UNL1        0.0561
      6 C         139.0998  141.0247  159.7865 C.ar    1  UNL1        0.0860
      7 N         139.5531  139.6329  160.1142 N.ar    1  UNL1       -0.2729
      8 C         140.3889  138.8657  159.1328 C.ar    1  UNL1        0.0671
      9 C         141.8567  138.6813  159.3807 C.ar    1  UNL1        0.0207
     10 C         142.6925  137.9142  158.3995 C.ar    1  UNL1        0.0384
     11 C         142.0605  137.3314  157.1702 C.ar    1  UNL1        0.1387
     12 C         140.5927  137.5158  156.9223 C.ar    1  UNL1        0.0384
     13 C         139.7568  138.2830  157.9037 C.ar    1  UNL1        0.0207
     14 O         142.8963  136.5643  156.1890 O.3     1  UNL1       -0.4740
     15 C         142.9496  135.0669  156.2586 C.3     1  UNL1        0.2226
     16 C         143.6852  134.3939  157.3792 C.3     1  UNL1        0.1200
     17 N         143.8429  132.9022  157.3838 N.3     1  UNL1       -0.2696
     18 C         145.0156  132.1412  157.9277 C.3     1  UNL1        0.0722
     19 C         144.7530  130.6783  157.7253 C.3     1  UNL1        0.0188
     20 C         143.4181  130.5351  157.0563 C.3     1  UNL1        0.0188
     21 C         142.8556  131.9096  156.8453 C.3     1  UNL1        0.0722
     22 O         137.0457  141.9344  163.0580 O.3     1  UNL1       -0.4704
     23 C         137.6813  142.5330  164.2778 C.3     1  UNL1        0.2320
     24 C         139.0097  143.2212  164.1702 C.ar    1  UNL1        0.0212
     25 C         139.1413  144.4745  163.3566 C.ar    1  UNL1        0.0002
     26 C         140.4698  145.1627  163.2490 C.ar    1  UNL1        0.0112
     27 C         141.6666  144.5976  163.9550 C.ar    1  UNL1        0.0577
     28 CL        142.9950  145.2859  163.8474 Cl      1  UNL1       -0.0822
     29 C         141.5349  143.3444  164.7686 C.ar    1  UNL1        0.0112
     30 C         140.2065  142.6561  164.8762 C.ar    1  UNL1        0.0002
@<TRIPOS>BOND
     1     1     2    2
     2     2     3   ar
     3     3     4   ar
     4     4    22    1
     5    22    23    1
     6    23    24    1
     7    24    25   ar
     8    25    26   ar
     9    26    27   ar
    10    27    28    1
    11    27    29   ar
    12    29    30   ar
    13     4     5   ar
    14     5     6   ar
    15     6     7   ar
    16     7     8    1
    17     8     9   ar
    18     9    10   ar
    19    10    11   ar
    20    11    14    1
    21    14    15    1
    22    15    16    1
    23    16    17    1
    24    17    18    1
    25    18    19    1
    26    19    20    1
    27    20    21    1
    28    11    12   ar
    29    12    13   ar
    30     7     2   ar
    31    13     8   ar
    32    30    24   ar
    33    21    17    1
@<TRIPOS>MOLECULE
*****
 30 33 0 0 0
SMALL
GASTEIGER

@<TRIPOS>ATOM
      1 O         142.9035  138.1072  162.1721 O.2     1  UNL1       -0.2665
      2 C         141.9040  138.2345  161.0608 C.ar    1  UNL1        0.2679
      3 C         142.3312  138.0180  159.6394 C.ar    1  UNL1        0.0980
      4 C         141.3317  138.1454  158.5282 C.ar    1  UNL1        0.1453
      5 C         139.9051  138.4893  158.8384 C.ar    1  UNL1        0.0561
      6 C         139.4779  138.7058  160.2599 C.ar    1  UNL1        0.0860
      7 N         140.4774  138.5785  161.3711 N.ar    1  UNL1       -0.2729
      8 C         140.0501  138.7950  162.7926 C.ar    1  UNL1        0.0671
      9 C         139.9425  140.1876  163.3395 C.ar    1  UNL1        0.0207
     10 C         139.5152  140.4042  164.7609 C.ar    1  UNL1        0.0384
     11 C         139.1957  139.2282  165.6356 C.ar    1  UNL1        0.1387
     12 C         139.3033  137.8356  165.0887 C.ar    1  UNL1        0.0384
     13 C         139.7306  137.6190  163.6671 C.ar    1  UNL1        0.0207
     14 O         138.7684  139.4448  167.0570 O.3     1  UNL1       -0.4740
     15 C         139.6264  140.2552  167.9828 C.3     1  UNL1        0.2226
     16 C         141.0678  139.8906  168.1813 C.3     1  UNL1        0.1200
     17 N         142.0537  140.0978  167.0701 N.3     1  UNL1       -0.2696
     18 C         142.5513  141.4209  166.5681 C.3     1  UNL1        0.0722
     19 C         143.5204  141.1591  165.4534 C.3     1  UNL1        0.0188
     20 C         143.6217  139.6742  165.2665 C.3     1  UNL1        0.0188
     21 C         142.7153  139.0183  166.2656 C.3     1  UNL1        0.0722
     22 O         141.7590  137.9288  157.1067 O.3     1  UNL1       -0.4704
     23 C         142.9119  137.0194  156.8003 C.3     1  UNL1        0.2320
     24 C         142.6665  135.5676  156.5143 C.ar    1  UNL1        0.0212
     25 C         143.4773  134.5177  157.2146 C.ar    1  UNL1        0.0002
     26 C         143.2318  133.0658  156.9285 C.ar    1  UNL1        0.0112
     27 C         142.1757  132.6638  155.9422 C.ar    1  UNL1        0.0577
     28 CL        141.9303  131.2119  155.6562 Cl      1  UNL1       -0.0822
     29 C         141.3649  133.7137  155.2419 C.ar    1  UNL1        0.0112
     30 C         141.6103  135.1655  155.5279 C.ar    1  UNL1        0.0002
@<TRIPOS>BOND
     1     1     2    2
     2     2     3   ar
     3     3     4   ar
     4     4    22    1
     5    22    23    1
     6    23    24    1
     7    24    25   ar
     8    25    26   ar
     9    26    27   ar
    10    27    28    1
    11    27    29   ar
    12    29    30   ar
    13     4     5   ar
    14     5     6   ar
    15     6     7   ar
    16     7     8    1
    17     8     9   ar
    18     9    10   ar
    19    10    11   ar
    20    11    14    1
    21    14    15    1
    22    15    16    1
    23    16    17    1
    24    17    18    1
    25    18    19    1
    26    19    20    1
    27    20    21    1
    28    11    12   ar
    29    12    13   ar
    30     7     2   ar
    31    13     8   ar
    32    30    24   ar
    33    21    17    1
@<TRIPOS>MOLECULE
*****
 30 33 0 0 0
SMALL
GASTEIGER

@<TRIPOS>ATOM
      1 O         143.2545  137.8917  162.0442 O.2     1  UNL1       -0.2665
      2 C         142.3074  138.0314  160.8895 C.ar    1  UNL1        0.2679
      3 C         142.7719  137.7232  159.4969 C.ar    1  UNL1        0.0980
      4 C         141.8248  137.8630  158.3422 C.ar    1  UNL1        0.1453
      5 C         140.4131  138.3108  158.5800 C.ar    1  UNL1        0.0561
      6 C         139.9486  138.6189  159.9725 C.ar    1  UNL1        0.0860
      7 N         140.8957  138.4792  161.1273 N.ar    1  UNL1       -0.2729
      8 C         140.4311  138.7874  162.5199 C.ar    1  UNL1        0.0671
      9 C         140.6896  140.1399  163.1147 C.ar    1  UNL1        0.0207
     10 C         140.2251  140.4481  164.5072 C.ar    1  UNL1        0.0384
     11 C         139.5019  139.4038  165.3050 C.ar    1  UNL1        0.1387
     12 C         139.2434  138.0512  164.7102 C.ar    1  UNL1        0.0384
     13 C         139.7080  137.7431  163.3176 C.ar    1  UNL1        0.0207
     14 O         139.0374  139.7120  166.6975 O.3     1  UNL1       -0.4740
     15 C         140.0370  139.8618  167.8057 C.3     1  UNL1        0.2226
     16 C         139.9745  141.0521  168.7163 C.3     1  UNL1        0.1200
     17 N         141.2398  141.6529  169.2533 N.3     1  UNL1       -0.2696
     18 C         142.6259  141.1167  169.0501 C.3     1  UNL1        0.0722
     19 C         143.5838  142.0277  169.7590 C.3     1  UNL1        0.0188
     20 C         142.7897  143.1270  170.4002 C.3     1  UNL1        0.0188
     21 C         141.3410  142.8953  170.0876 C.3     1  UNL1        0.0722
     22 O         142.2894  137.5548  156.9496 O.3     1  UNL1       -0.4704
     23 C         141.7177  136.3813  156.2107 C.3     1  UNL1        0.2320
     24 C         142.4902  135.0982  156.1282 C.ar    1  UNL1        0.0212
     25 C         142.3682  134.2260  154.9140 C.ar    1  UNL1        0.0002
     26 C         143.1408  132.9428  154.8315 C.ar    1  UNL1        0.0112
     27 C         144.0353  132.5319  155.9633 C.ar    1  UNL1        0.0577
     28 CL        144.8078  131.2488  155.8809 Cl      1  UNL1       -0.0822
     29 C         144.1572  133.4041  157.1776 C.ar    1  UNL1        0.0112
     30 C         143.3847  134.6872  157.2601 C.ar    1  UNL1        0.0002
@<TRIPOS>BOND
     1     1     2    2
     2     2     3   ar
     3     3     4   ar
     4     4    22    1
     5    22    23    1
     6    23    24    1
     7    24    25   ar
     8    25    26   ar
     9    26    27   ar
    10    27    28    1
    11    27    29   ar
    12    29    30   ar
    13     4     5   ar
    14     5     6   ar
    15     6     7   ar
    16     7     8    1
    17     8     9   ar
    18     9    10   ar
    19    10    11   ar
    20    11    14    1
    21    14    15    1
    22    15    16    1
    23    16    17    1
    24    17    18    1
    25    18    19    1
    26    19    20    1
    27    20    21    1
    28    11    12   ar
    29    12    13   ar
    30     7     2   ar
    31    13     8   ar
    32    30    24   ar
    33    21    17    1
@<TRIPOS>MOLECULE
*****
 30 33 0 0 0
SMALL
GASTEIGER

@<TRIPOS>ATOM
      1 O         137.6754  144.3079  162.6801 O.2     1  UNL1       -0.2665
      2 C         138.9717  143.9104  163.3217 C.ar    1  UNL1        0.2679
      3 C         139.0361  143.6800  164.8024 C.ar    1  UNL1        0.0980
      4 C         140.3324  143.2825  165.4440 C.ar    1  UNL1        0.1453
      5 C         141.5644  143.1155  164.6047 C.ar    1  UNL1        0.0561
      6 C         141.5000  143.3458  163.1240 C.ar    1  UNL1        0.0860
      7 N         140.2037  143.7433  162.4824 N.ar    1  UNL1       -0.2729
      8 C         140.1393  143.9737  161.0016 C.ar    1  UNL1        0.0671
      9 C         140.5266  145.3064  160.4324 C.ar    1  UNL1        0.0207
     10 C         140.4623  145.5368  158.9516 C.ar    1  UNL1        0.0384
     11 C         140.0107  144.4345  158.0400 C.ar    1  UNL1        0.1387
     12 C         139.6234  143.1019  158.6091 C.ar    1  UNL1        0.0384
     13 C         139.6877  142.8715  160.0900 C.ar    1  UNL1        0.0207
     14 O         139.9464  144.6650  156.5592 O.3     1  UNL1       -0.4740
     15 C         139.2430  145.8743  156.0182 C.3     1  UNL1        0.2226
     16 C         139.9102  146.7290  154.9817 C.3     1  UNL1        0.1200
     17 N         139.5854  148.1907  154.8925 N.3     1  UNL1       -0.2696
     18 C         138.7235  148.9623  155.8474 C.3     1  UNL1        0.0722
     19 C         138.6709  150.3859  155.3777 C.3     1  UNL1        0.0188
     20 C         139.5003  150.4942  154.1326 C.3     1  UNL1        0.0188
     21 C         140.0655  149.1374  153.8327 C.3     1  UNL1        0.0722
     22 O         140.3968  143.0521  166.9248 O.3     1  UNL1       -0.4704
     23 C         140.1717  141.6771  167.4804 C.3     1  UNL1        0.2320
     24 C         140.4089  140.4722  166.6191 C.ar    1  UNL1        0.0212
     25 C         139.2551  139.7996  165.9360 C.ar    1  UNL1        0.0002
     26 C         139.4924  138.5946  165.0748 C.ar    1  UNL1        0.0112
     27 C         140.8833  138.0622  164.8966 C.ar    1  UNL1        0.0577
     28 CL        141.1205  136.8572  164.0354 Cl      1  UNL1       -0.0822
     29 C         142.0371  138.7347  165.5797 C.ar    1  UNL1        0.0112
     30 C         141.7999  139.9397  166.4410 C.ar    1  UNL1        0.0002
@<TRIPOS>BOND
     1     1     2    2
     2     2     3   ar
     3     3     4   ar
     4     4    22    1
     5    22    23    1
     6    23    24    1
     7    24    25   ar
     8    25    26   ar
     9    26    27   ar
    10    27    28    1
    11    27    29   ar
    12    29    30   ar
    13     4     5   ar
    14     5     6   ar
    15     6     7   ar
    16     7     8    1
    17     8     9   ar
    18     9    10   ar
    19    10    11   ar
    20    11    14    1
    21    14    15    1
    22    15    16    1
    23    16    17    1
    24    17    18    1
    25    18    19    1
    26    19    20    1
    27    20    21    1
    28    11    12   ar
    29    12    13   ar
    30     7     2   ar
    31    13     8   ar
    32    30    24   ar
    33    21    17    1
@<TRIPOS>MOLECULE
*****
 30 33 0 0 0
SMALL
GASTEIGER

@<TRIPOS>ATOM
      1 O         138.1340  139.9670  159.6337 O.2     1  UNL1       -0.2665
      2 C         138.8705  141.1255  160.2380 C.ar    1  UNL1        0.2679
      3 C         138.1190  142.1777  160.9983 C.ar    1  UNL1        0.0980
      4 C         138.8555  143.3363  161.6027 C.ar    1  UNL1        0.1453
      5 C         140.3436  143.4426  161.4468 C.ar    1  UNL1        0.0561
      6 C         141.0951  142.3905  160.6864 C.ar    1  UNL1        0.0860
      7 N         140.3585  141.2319  160.0821 N.ar    1  UNL1       -0.2729
      8 C         141.1101  140.1797  159.3217 C.ar    1  UNL1        0.0671
      9 C         141.7999  139.0704  160.0591 C.ar    1  UNL1        0.0207
     10 C         142.5514  138.0182  159.2988 C.ar    1  UNL1        0.0384
     11 C         142.6133  138.0753  157.8011 C.ar    1  UNL1        0.1387
     12 C         141.9235  139.1846  157.0638 C.ar    1  UNL1        0.0384
     13 C         141.1719  140.2368  157.8241 C.ar    1  UNL1        0.0207
     14 O         143.3648  137.0231  157.0409 O.3     1  UNL1       -0.4740
     15 C         142.7750  135.6543  156.8725 C.3     1  UNL1        0.2226
     16 C         143.3930  134.6846  155.9093 C.3     1  UNL1        0.1200
     17 N         144.0037  133.4113  156.4150 N.3     1  UNL1       -0.2696
     18 C         144.1915  132.1494  155.6260 C.3     1  UNL1        0.0722
     19 C         144.8377  131.1345  156.5219 C.3     1  UNL1        0.0188
     20 C         145.0491  131.7691  157.8645 C.3     1  UNL1        0.0188
     21 C         144.5337  133.1762  157.7984 C.3     1  UNL1        0.0722
     22 O         138.1039  144.3885  162.3630 O.3     1  UNL1       -0.4704
     23 C         137.7675  144.1726  163.8088 C.3     1  UNL1        0.2320
     24 C         138.5092  143.1406  164.6055 C.ar    1  UNL1        0.0212
     25 C         138.0303  141.7193  164.6223 C.ar    1  UNL1        0.0002
     26 C         138.7721  140.6872  165.4190 C.ar    1  UNL1        0.0112
     27 C         139.9928  141.0766  166.1988 C.ar    1  UNL1        0.0577
     28 CL        140.7346  140.0446  166.9955 Cl      1  UNL1       -0.0822
     29 C         140.4718  142.4979  166.1820 C.ar    1  UNL1        0.0112
     30 C         139.7301  143.5300  165.3853 C.ar    1  UNL1        0.0002
@<TRIPOS>BOND
     1     1     2    2
     2     2     3   ar
     3     3     4   ar
     4     4    22    1
     5    22    23    1
     6    23    24    1
     7    24    25   ar
     8    25    26   ar
     9    26    27   ar
    10    27    28    1
    11    27    29   ar
    12    29    30   ar
    13     4     5   ar
    14     5     6   ar
    15     6     7   ar
    16     7     8    1
    17     8     9   ar
    18     9    10   ar
    19    10    11   ar
    20    11    14    1
    21    14    15    1
    22    15    16    1
    23    16    17    1
    24    17    18    1
    25    18    19    1
    26    19    20    1
    27    20    21    1
    28    11    12   ar
    29    12    13   ar
    30     7     2   ar
    31    13     8   ar
    32    30    24   ar
    33    21    17    1
@<TRIPOS>MOLECULE
*****
 30 33 0 0 0
SMALL
GASTEIGER

@<TRIPOS>ATOM
      1 O         139.6482  145.4484  160.4039 O.2     1  UNL1       -0.2665
      2 C         140.5563  145.1114  159.2586 C.ar    1  UNL1        0.2679
      3 C         140.4060  145.8242  157.9474 C.ar    1  UNL1        0.0980
      4 C         141.3141  145.4871  156.8021 C.ar    1  UNL1        0.1453
      5 C         142.3725  144.4373  156.9679 C.ar    1  UNL1        0.0561
      6 C         142.5227  143.7244  158.2791 C.ar    1  UNL1        0.0860
      7 N         141.6146  144.0615  159.4244 N.ar    1  UNL1       -0.2729
      8 C         141.7649  143.3486  160.7357 C.ar    1  UNL1        0.0671
      9 C         142.6558  143.9167  161.8004 C.ar    1  UNL1        0.0207
     10 C         142.8061  143.2038  163.1116 C.ar    1  UNL1        0.0384
     11 C         142.0656  141.9228  163.3581 C.ar    1  UNL1        0.1387
     12 C         141.1747  141.3548  162.2934 C.ar    1  UNL1        0.0384
     13 C         141.0244  142.0677  160.9821 C.ar    1  UNL1        0.0207
     14 O         142.2159  141.2100  164.6693 O.3     1  UNL1       -0.4740
     15 C         141.0350  140.5242  165.2898 C.3     1  UNL1        0.2226
     16 C         140.0315  141.3191  166.0715 C.3     1  UNL1        0.1200
     17 N         139.3002  142.4540  165.4179 N.3     1  UNL1       -0.2696
     18 C         138.1406  142.3288  164.4745 C.3     1  UNL1        0.0722
     19 C         137.7238  143.7108  164.0664 C.3     1  UNL1        0.0188
     20 C         138.6257  144.6900  164.7575 C.3     1  UNL1        0.0188
     21 C         139.6000  143.9133  165.5928 C.3     1  UNL1        0.0722
     22 O         141.1638  146.2001  155.4908 O.3     1  UNL1       -0.4704
     23 C         139.8078  146.6478  155.0317 C.3     1  UNL1        0.2320
     24 C         139.4599  148.1068  155.0320 C.ar    1  UNL1        0.0212
     25 C         139.8892  148.9805  153.8908 C.ar    1  UNL1        0.0002
     26 C         139.5411  150.4397  153.8912 C.ar    1  UNL1        0.0112
     27 C         138.7638  151.0250  155.0327 C.ar    1  UNL1        0.0577
     28 CL        138.4158  152.4840  155.0330 Cl      1  UNL1       -0.0822
     29 C         138.3345  150.1513  156.1739 C.ar    1  UNL1        0.0112
     30 C         138.6825  148.6923  156.1736 C.ar    1  UNL1        0.0002
@<TRIPOS>BOND
     1     1     2    2
     2     2     3   ar
     3     3     4   ar
     4     4    22    1
     5    22    23    1
     6    23    24    1
     7    24    25   ar
     8    25    26   ar
     9    26    27   ar
    10    27    28    1
    11    27    29   ar
    12    29    30   ar
    13     4     5   ar
    14     5     6   ar
    15     6     7   ar
    16     7     8    1
    17     8     9   ar
    18     9    10   ar
    19    10    11   ar
    20    11    14    1
    21    14    15    1
    22    15    16    1
    23    16    17    1
    24    17    18    1
    25    18    19    1
    26    19    20    1
    27    20    21    1
    28    11    12   ar
    29    12    13   ar
    30     7     2   ar
    31    13     8   ar
    32    30    24   ar
    33    21    17    1
@<TRIPOS>MOLECULE
*****
 30 33 0 0 0
SMALL
GASTEIGER

@<TRIPOS>ATOM
      1 O         138.4848  137.3924  163.2032 O.2     1  UNL1       -0.2665
      2 C         139.2177  138.1986  164.2342 C.ar    1  UNL1        0.2679
      3 C         138.6859  138.2875  165.6339 C.ar    1  UNL1        0.0980
      4 C         139.4188  139.0938  166.6648 C.ar    1  UNL1        0.1453
      5 C         140.6835  139.8111  166.2961 C.ar    1  UNL1        0.0561
      6 C         141.2153  139.7222  164.8964 C.ar    1  UNL1        0.0860
      7 N         140.4824  138.9159  163.8654 N.ar    1  UNL1       -0.2729
      8 C         141.0142  138.8270  162.4656 C.ar    1  UNL1        0.0671
      9 C         140.4454  139.7043  161.3901 C.ar    1  UNL1        0.0207
     10 C         140.9771  139.6155  159.9904 C.ar    1  UNL1        0.0384
     11 C         142.0778  138.6493  159.6661 C.ar    1  UNL1        0.1387
     12 C         142.6467  137.7720  160.7416 C.ar    1  UNL1        0.0384
     13 C         142.1148  137.8609  162.1414 C.ar    1  UNL1        0.0207
     14 O         142.6096  138.5604  158.2664 O.3     1  UNL1       -0.4740
     15 C         142.1014  137.4983  157.3370 C.3     1  UNL1        0.2226
     16 C         143.0695  136.6351  156.5837 C.3     1  UNL1        0.1200
     17 N         142.8609  135.1509  156.5230 N.3     1  UNL1       -0.2696
     18 C         143.5616  134.1268  157.3658 C.3     1  UNL1        0.0722
     19 C         143.0487  132.7732  156.9724 C.3     1  UNL1        0.0188
     20 C         142.0310  132.9607  155.8865 C.3     1  UNL1        0.0188
     21 C         141.9150  134.4302  155.6088 C.3     1  UNL1        0.0722
     22 O         138.8870  139.1827  168.0646 O.3     1  UNL1       -0.4704
     23 C         139.0546  140.4486  168.8516 C.3     1  UNL1        0.2320
     24 C         140.4292  140.9617  169.1631 C.ar    1  UNL1        0.0212
     25 C         141.4743  140.0288  169.6993 C.ar    1  UNL1        0.0002
     26 C         142.8490  140.5419  170.0108 C.ar    1  UNL1        0.0112
     27 C         143.1785  141.9879  169.7861 C.ar    1  UNL1        0.0577
     28 CL        144.5532  142.5010  170.0976 Cl      1  UNL1       -0.0822
     29 C         142.1334  142.9208  169.2500 C.ar    1  UNL1        0.0112
     30 C         140.7588  142.4077  168.9385 C.ar    1  UNL1        0.0002
@<TRIPOS>BOND
     1     1     2    2
     2     2     3   ar
     3     3     4   ar
     4     4    22    1
     5    22    23    1
     6    23    24    1
     7    24    25   ar
     8    25    26   ar
     9    26    27   ar
    10    27    28    1
    11    27    29   ar
    12    29    30   ar
    13     4     5   ar
    14     5     6   ar
    15     6     7   ar
    16     7     8    1
    17     8     9   ar
    18     9    10   ar
    19    10    11   ar
    20    11    14    1
    21    14    15    1
    22    15    16    1
    23    16    17    1
    24    17    18    1
    25    18    19    1
    26    19    20    1
    27    20    21    1
    28    11    12   ar
    29    12    13   ar
    30     7     2   ar
    31    13     8   ar
    32    30    24   ar
    33    21    17    1
@<TRIPOS>MOLECULE
*****
 30 33 0 0 0
SMALL
GASTEIGER

@<TRIPOS>ATOM
      1 O         141.0732  136.8800  162.6222 O.2     1  UNL1       -0.2665
      2 C         140.1629  138.0383  162.9045 C.ar    1  UNL1        0.2679
      3 C         139.4825  138.1502  164.2366 C.ar    1  UNL1        0.0980
      4 C         138.5722  139.3085  164.5189 C.ar    1  UNL1        0.1453
      5 C         138.3422  140.3549  163.4691 C.ar    1  UNL1        0.0561
      6 C         139.0226  140.2430  162.1370 C.ar    1  UNL1        0.0860
      7 N         139.9329  139.0847  161.8547 N.ar    1  UNL1       -0.2729
      8 C         140.6132  138.9728  160.5225 C.ar    1  UNL1        0.0671
      9 C         139.8414  138.5093  159.3227 C.ar    1  UNL1        0.0207
     10 C         140.5216  138.3974  157.9906 C.ar    1  UNL1        0.0384
     11 C         141.9739  138.7491  157.8581 C.ar    1  UNL1        0.1387
     12 C         142.7457  139.2126  159.0578 C.ar    1  UNL1        0.0384
     13 C         142.0654  139.3245  160.3900 C.ar    1  UNL1        0.0207
     14 O         142.6541  138.6372  156.5260 O.3     1  UNL1       -0.4740
     15 C         143.2831  139.8471  155.9011 C.3     1  UNL1        0.2226
     16 C         144.7122  139.7998  155.4477 C.3     1  UNL1        0.1200
     17 N         145.6751  140.8611  155.8911 N.3     1  UNL1       -0.2696
     18 C         146.9425  141.2505  155.1894 C.3     1  UNL1        0.0722
     19 C         147.5904  142.3493  155.9786 C.3     1  UNL1        0.0188
     20 C         146.7236  142.6390  157.1680 C.3     1  UNL1        0.0188
     21 C         145.5399  141.7192  157.1139 C.3     1  UNL1        0.0722
     22 O         137.8918  139.4204  165.8511 O.3     1  UNL1       -0.4704
     23 C         138.6624  139.1583  167.1111 C.3     1  UNL1        0.2320
     24 C         139.3135  140.2947  167.8421 C.ar    1  UNL1        0.0212
     25 C         139.2722  140.3443  169.3408 C.ar    1  UNL1        0.0002
     26 C         139.9233  141.4808  170.0718 C.ar    1  UNL1        0.0112
     27 C         140.6157  142.5677  169.3043 C.ar    1  UNL1        0.0577
     28 CL        141.2668  143.7041  170.0354 Cl      1  UNL1       -0.0822
     29 C         140.6570  142.5182  167.8057 C.ar    1  UNL1        0.0112
     30 C         140.0059  141.3817  167.0746 C.ar    1  UNL1        0.0002
@<TRIPOS>BOND
     1     1     2    2
     2     2     3   ar
     3     3     4   ar
     4     4    22    1
     5    22    23    1
     6    23    24    1
     7    24    25   ar
     8    25    26   ar
     9    26    27   ar
    10    27    28    1
    11    27    29   ar
    12    29    30   ar
    13     4     5   ar
    14     5     6   ar
    15     6     7   ar
    16     7     8    1
    17     8     9   ar
    18     9    10   ar
    19    10    11   ar
    20    11    14    1
    21    14    15    1
    22    15    16    1
    23    16    17    1
    24    17    18    1
    25    18    19    1
    26    19    20    1
    27    20    21    1
    28    11    12   ar
    29    12    13   ar
    30     7     2   ar
    31    13     8   ar
    32    30    24   ar
    33    21    17    1
