@<TRIPOS>MOLECULE
*****
 33 37 0 0 0
SMALL
GASTEIGER

@<TRIPOS>ATOM
      1 O         143.1123  140.2127  156.9744 O.2     1  UNL1       -0.2647
      2 C         142.9119  138.9743  157.7968 C.2     1  UNL1        0.3045
      3 N         143.2178  138.9915  159.2652 N.am    1  UNL1       -0.2720
      4 C         143.0174  137.7531  160.0876 C.3     1  UNL1        0.0976
      5 C         143.3233  137.7702  161.5559 C.3     1  UNL1        0.0651
      6 C         143.8297  139.0257  162.2019 C.3     1  UNL1        0.1693
      7 C         144.0301  140.2641  161.3795 C.3     1  UNL1        0.0651
      8 C         143.7242  140.2470  159.9112 C.3     1  UNL1        0.0976
      9 C         142.4055  137.7189  157.1508 C.ar    1  UNL1        0.3042
     10 N         141.0752  137.5475  156.4793 N.ar    1  UNL1       -0.1021
     11 N         140.9880  136.1370  155.9764 N.ar    1  UNL1       -0.1068
     12 C         142.2645  135.4366  156.3371 C.ar    1  UNL1        0.2501
     13 O         143.1405  136.4142  157.0629 O.2     1  UNL1       -0.4122
     14 C         142.6051  134.0091  156.0265 C.ar    1  UNL1        0.0553
     15 C         141.5755  133.1095  155.4097 C.ar    1  UNL1        0.0070
     16 C         141.9162  131.6821  155.0992 C.ar    1  UNL1        0.0298
     17 C         143.2865  131.1544  155.4054 C.ar    1  UNL1        0.1401
     18 F         143.6271  129.7269  155.0948 F       1  UNL1       -0.2042
     19 C         144.3161  132.0540  156.0222 C.ar    1  UNL1        0.0298
     20 C         143.9754  133.4814  156.3327 C.ar    1  UNL1        0.0070
     21 O         144.1356  139.0429  163.6702 O.3     1  UNL1       -0.4791
     22 C         143.0503  139.3503  164.6590 C.ar    1  UNL1        0.1384
     23 C         141.7109  139.8251  164.1789 C.ar    1  UNL1        0.0366
     24 C         140.6256  140.1325  165.1676 C.ar    1  UNL1        0.0002
     25 C         140.8797  139.9651  166.6364 C.ar    1  UNL1       -0.0059
     26 C         142.2191  139.4903  167.1165 C.ar    1  UNL1        0.0002
     27 C         143.3044  139.1829  166.1278 C.ar    1  UNL1        0.0366
     28 C         139.7943  140.2726  167.6250 C.3     1  UNL1        0.0991
     29 N         139.9714  141.3899  168.6100 N.3     1  UNL1       -0.2690
     30 C         139.6692  141.3273  170.0779 C.3     1  UNL1        0.0724
     31 C         139.9928  142.6647  170.6751 C.3     1  UNL1        0.0188
     32 C         140.4949  143.5538  169.5764 C.3     1  UNL1        0.0188
     33 C         140.4817  142.7659  168.3000 C.3     1  UNL1        0.0724
@<TRIPOS>BOND
     1     1     2    2
     2     2     9    1
     3     9    10   ar
     4    10    11   ar
     5    11    12   ar
     6    12    14    1
     7    14    15   ar
     8    15    16   ar
     9    16    17   ar
    10    17    18    1
    11    17    19   ar
    12    19    20   ar
    13    12    13   ar
    14     2     3   am
    15     3     4    1
    16     4     5    1
    17     5     6    1
    18     6    21    1
    19    21    22    1
    20    22    23   ar
    21    23    24   ar
    22    24    25   ar
    23    25    28    1
    24    28    29    1
    25    29    30    1
    26    30    31    1
    27    31    32    1
    28    32    33    1
    29    25    26   ar
    30    26    27   ar
    31     6     7    1
    32     7     8    1
    33    13     9   ar
    34     8     3    1
    35    20    14   ar
    36    27    22   ar
    37    33    29    1
@<TRIPOS>MOLECULE
*****
 33 37 0 0 0
SMALL
GASTEIGER

@<TRIPOS>ATOM
      1 O         140.4151  139.0074  157.8225 O.2     1  UNL1       -0.2647
      2 C         141.7935  138.6339  158.2811 C.2     1  UNL1        0.3045
      3 N         142.3732  139.2699  159.5098 N.am    1  UNL1       -0.2720
      4 C         143.7517  138.8964  159.9684 C.3     1  UNL1        0.0976
      5 C         144.3314  139.5323  161.1970 C.3     1  UNL1        0.0651
      6 C         143.5326  140.5418  161.9669 C.3     1  UNL1        0.1693
      7 C         142.1541  140.9154  161.5084 C.3     1  UNL1        0.0651
      8 C         141.5745  140.2794  160.2797 C.3     1  UNL1        0.0976
      9 C         142.5923  137.6244  157.5112 C.ar    1  UNL1        0.3042
     10 N         143.5469  137.9224  156.3931 N.ar    1  UNL1       -0.1021
     11 N         144.1213  136.6218  155.9150 N.ar    1  UNL1       -0.1068
     12 C         143.5218  135.5201  156.7376 C.ar    1  UNL1        0.2501
     13 O         142.5768  136.1397  157.7241 O.2     1  UNL1       -0.4122
     14 C         143.8156  134.0557  156.5982 C.ar    1  UNL1        0.0553
     15 C         143.4685  133.3388  155.3272 C.ar    1  UNL1        0.0070
     16 C         143.7623  131.8745  155.1878 C.ar    1  UNL1        0.0298
     17 C         144.4033  131.1271  156.3195 C.ar    1  UNL1        0.1401
     18 F         144.6971  129.6628  156.1801 F       1  UNL1       -0.2042
     19 C         144.7504  131.8441  157.5905 C.ar    1  UNL1        0.0298
     20 C         144.4565  133.3083  157.7298 C.ar    1  UNL1        0.0070
     21 O         144.1123  141.1778  163.1956 O.3     1  UNL1       -0.4791
     22 C         143.6481  140.7446  164.5545 C.ar    1  UNL1        0.1384
     23 C         143.7144  139.2975  164.9436 C.ar    1  UNL1        0.0366
     24 C         143.2501  138.8643  166.3026 C.ar    1  UNL1        0.0002
     25 C         142.7196  139.8782  167.2725 C.ar    1  UNL1       -0.0059
     26 C         142.6534  141.3253  166.8834 C.ar    1  UNL1        0.0002
     27 C         143.1176  141.7585  165.5244 C.ar    1  UNL1        0.0366
     28 C         142.2554  139.4448  168.6314 C.3     1  UNL1        0.0991
     29 N         141.4154  140.3655  169.4660 N.3     1  UNL1       -0.2690
     30 C         141.8966  141.1963  170.6185 C.3     1  UNL1        0.0724
     31 C         140.7253  141.9613  171.1594 C.3     1  UNL1        0.0188
     32 C         139.5201  141.6034  170.3412 C.3     1  UNL1        0.0188
     33 C         139.9466  140.6171  169.2946 C.3     1  UNL1        0.0724
@<TRIPOS>BOND
     1     1     2    2
     2     2     9    1
     3     9    10   ar
     4    10    11   ar
     5    11    12   ar
     6    12    14    1
     7    14    15   ar
     8    15    16   ar
     9    16    17   ar
    10    17    18    1
    11    17    19   ar
    12    19    20   ar
    13    12    13   ar
    14     2     3   am
    15     3     4    1
    16     4     5    1
    17     5     6    1
    18     6    21    1
    19    21    22    1
    20    22    23   ar
    21    23    24   ar
    22    24    25   ar
    23    25    28    1
    24    28    29    1
    25    29    30    1
    26    30    31    1
    27    31    32    1
    28    32    33    1
    29    25    26   ar
    30    26    27   ar
    31     6     7    1
    32     7     8    1
    33    13     9   ar
    34     8     3    1
    35    20    14   ar
    36    27    22   ar
    37    33    29    1
@<TRIPOS>MOLECULE
*****
 33 37 0 0 0
SMALL
GASTEIGER

@<TRIPOS>ATOM
      1 O         144.0941  139.5132  159.2546 O.2     1  UNL1       -0.2647
      2 C         142.7943  138.7645  159.2496 C.2     1  UNL1        0.3045
      3 N         141.7298  139.1031  160.2506 N.am    1  UNL1       -0.2720
      4 C         140.4300  138.3542  160.2455 C.3     1  UNL1        0.0976
      5 C         139.3655  138.6928  161.2464 C.3     1  UNL1        0.0651
      6 C         139.6006  139.7802  162.2526 C.3     1  UNL1        0.1693
      7 C         140.9003  140.5291  162.2577 C.3     1  UNL1        0.0651
      8 C         141.9649  140.1905  161.2567 C.3     1  UNL1        0.0976
      9 C         142.5592  137.6771  158.2435 C.ar    1  UNL1        0.3042
     10 N         141.4977  137.6710  157.1836 N.ar    1  UNL1       -0.1021
     11 N         141.6267  136.3950  156.4056 N.ar    1  UNL1       -0.1068
     12 C         142.7679  135.6125  156.9847 C.ar    1  UNL1        0.2501
     13 O         143.3442  136.4048  158.1205 O.2     1  UNL1       -0.4122
     14 C         143.2484  134.2727  156.5111 C.ar    1  UNL1        0.0553
     15 C         144.1517  133.4495  157.3808 C.ar    1  UNL1        0.0070
     16 C         144.6322  132.1099  156.9072 C.ar    1  UNL1        0.0298
     17 C         144.2095  131.5934  155.5638 C.ar    1  UNL1        0.1401
     18 F         144.6900  130.2536  155.0902 F       1  UNL1       -0.2042
     19 C         143.3062  132.4166  154.6941 C.ar    1  UNL1        0.0298
     20 C         142.8257  133.7562  155.1678 C.ar    1  UNL1        0.0070
     21 O         138.5361  140.1188  163.2536 O.3     1  UNL1       -0.4791
     22 C         138.8854  140.2428  164.7070 C.ar    1  UNL1        0.1384
     23 C         139.6572  141.4333  165.1939 C.ar    1  UNL1        0.0366
     24 C         140.0066  141.5573  166.6474 C.ar    1  UNL1        0.0002
     25 C         139.5841  140.4909  167.6140 C.ar    1  UNL1       -0.0059
     26 C         138.8123  139.3004  167.1271 C.ar    1  UNL1        0.0002
     27 C         138.4629  139.1764  165.6736 C.ar    1  UNL1        0.0366
     28 C         139.9335  140.6150  169.0674 C.3     1  UNL1        0.0991
     29 N         141.1875  141.3277  169.4792 N.3     1  UNL1       -0.2690
     30 C         142.5827  140.7863  169.3792 C.3     1  UNL1        0.0724
     31 C         143.5239  141.8310  169.9015 C.3     1  UNL1        0.0188
     32 C         142.7103  143.0181  170.3243 C.3     1  UNL1        0.0188
     33 C         141.2662  142.7071  170.0633 C.3     1  UNL1        0.0724
@<TRIPOS>BOND
     1     1     2    2
     2     2     9    1
     3     9    10   ar
     4    10    11   ar
     5    11    12   ar
     6    12    14    1
     7    14    15   ar
     8    15    16   ar
     9    16    17   ar
    10    17    18    1
    11    17    19   ar
    12    19    20   ar
    13    12    13   ar
    14     2     3   am
    15     3     4    1
    16     4     5    1
    17     5     6    1
    18     6    21    1
    19    21    22    1
    20    22    23   ar
    21    23    24   ar
    22    24    25   ar
    23    25    28    1
    24    28    29    1
    25    29    30    1
    26    30    31    1
    27    31    32    1
    28    32    33    1
    29    25    26   ar
    30    26    27   ar
    31     6     7    1
    32     7     8    1
    33    13     9   ar
    34     8     3    1
    35    20    14   ar
    36    27    22   ar
    37    33    29    1
@<TRIPOS>MOLECULE
*****
 33 37 0 0 0
SMALL
GASTEIGER

@<TRIPOS>ATOM
      1 O         140.2239  141.9744  157.0258 O.2     1  UNL1       -0.2647
      2 C         139.6981  140.7878  157.7778 C.2     1  UNL1        0.3045
      3 N         139.1019  140.9686  159.1423 N.am    1  UNL1       -0.2720
      4 C         138.5761  139.7819  159.8943 C.3     1  UNL1        0.0976
      5 C         137.9798  139.9628  161.2587 C.3     1  UNL1        0.0651
      6 C         137.9094  141.3302  161.8712 C.3     1  UNL1        0.1693
      7 C         138.4351  142.5169  161.1192 C.3     1  UNL1        0.0651
      8 C         139.0314  142.3361  159.7547 C.3     1  UNL1        0.0976
      9 C         139.7686  139.4203  157.1653 C.ar    1  UNL1        0.3042
     10 N         138.6394  138.6952  156.4950 N.ar    1  UNL1       -0.1021
     11 N         139.1535  137.3646  156.0310 N.ar    1  UNL1       -0.1068
     12 C         140.6004  137.2674  156.4146 C.ar    1  UNL1        0.2501
     13 O         140.9805  138.5379  157.1156 O.2     1  UNL1       -0.4122
     14 C         141.5079  136.1039  156.1445 C.ar    1  UNL1        0.0553
     15 C         142.8110  135.9832  156.8776 C.ar    1  UNL1        0.0070
     16 C         143.7184  134.8198  156.6075 C.ar    1  UNL1        0.0298
     17 C         143.3228  133.7771  155.6044 C.ar    1  UNL1        0.1401
     18 F         144.2303  132.6136  155.3343 F       1  UNL1       -0.2042
     19 C         142.0197  133.8978  154.8713 C.ar    1  UNL1        0.0298
     20 C         141.1123  135.0612  155.1414 C.ar    1  UNL1        0.0070
     21 O         137.3131  141.5111  163.2357 O.3     1  UNL1       -0.4791
     22 C         138.1124  141.1613  164.4558 C.ar    1  UNL1        0.1384
     23 C         139.0323  142.1767  165.0663 C.ar    1  UNL1        0.0366
     24 C         139.8316  141.8269  166.2864 C.ar    1  UNL1        0.0002
     25 C         139.7110  140.4617  166.8961 C.ar    1  UNL1       -0.0059
     26 C         138.7911  139.4463  166.2856 C.ar    1  UNL1        0.0002
     27 C         137.9919  139.7961  165.0655 C.ar    1  UNL1        0.0366
     28 C         140.5104  140.1121  168.1163 C.3     1  UNL1        0.0991
     29 N         141.4229  141.1307  168.7324 N.3     1  UNL1       -0.2690
     30 C         141.0228  142.1972  169.7083 C.3     1  UNL1        0.0724
     31 C         142.2484  142.9872  170.0599 C.3     1  UNL1        0.0188
     32 C         143.4060  142.4089  169.3013 C.3     1  UNL1        0.0188
     33 C         142.8959  141.2615  168.4809 C.3     1  UNL1        0.0724
@<TRIPOS>BOND
     1     1     2    2
     2     2     9    1
     3     9    10   ar
     4    10    11   ar
     5    11    12   ar
     6    12    14    1
     7    14    15   ar
     8    15    16   ar
     9    16    17   ar
    10    17    18    1
    11    17    19   ar
    12    19    20   ar
    13    12    13   ar
    14     2     3   am
    15     3     4    1
    16     4     5    1
    17     5     6    1
    18     6    21    1
    19    21    22    1
    20    22    23   ar
    21    23    24   ar
    22    24    25   ar
    23    25    28    1
    24    28    29    1
    25    29    30    1
    26    30    31    1
    27    31    32    1
    28    32    33    1
    29    25    26   ar
    30    26    27   ar
    31     6     7    1
    32     7     8    1
    33    13     9   ar
    34     8     3    1
    35    20    14   ar
    36    27    22   ar
    37    33    29    1
@<TRIPOS>MOLECULE
*****
 33 37 0 0 0
SMALL
GASTEIGER

@<TRIPOS>ATOM
      1 O         137.3714  139.4755  160.8604 O.2     1  UNL1       -0.2647
      2 C         138.7058  139.0408  161.3900 C.2     1  UNL1        0.3045
      3 N         139.8182  138.7099  160.4396 N.am    1  UNL1       -0.2720
      4 C         141.1526  138.2752  160.9693 C.3     1  UNL1        0.0976
      5 C         142.2650  137.9443  160.0190 C.3     1  UNL1        0.0651
      6 C         142.0430  138.0480  158.5392 C.3     1  UNL1        0.1693
      7 C         140.7086  138.4826  158.0095 C.3     1  UNL1        0.0651
      8 C         139.5962  138.8135  158.9598 C.3     1  UNL1        0.0976
      9 C         138.9278  138.9371  162.8698 C.ar    1  UNL1        0.3042
     10 N         138.9027  137.6742  163.6788 N.ar    1  UNL1       -0.1021
     11 N         139.1733  138.0347  165.1095 N.ar    1  UNL1       -0.1068
     12 C         139.3656  139.5204  165.1847 C.ar    1  UNL1        0.2501
     13 O         139.2139  140.0781  163.8005 O.2     1  UNL1       -0.4122
     14 C         139.6583  140.3098  166.4262 C.ar    1  UNL1        0.0553
     15 C         140.3314  141.6463  166.3238 C.ar    1  UNL1        0.0070
     16 C         140.6241  142.4357  167.5653 C.ar    1  UNL1        0.0298
     17 C         140.2435  141.8886  168.9091 C.ar    1  UNL1        0.1401
     18 F         140.5362  142.6780  170.1505 F       1  UNL1       -0.2042
     19 C         139.5703  140.5521  169.0114 C.ar    1  UNL1        0.0298
     20 C         139.2777  139.7627  167.7700 C.ar    1  UNL1        0.0070
     21 O         143.1554  137.7170  157.5889 O.3     1  UNL1       -0.4791
     22 C         143.1090  136.4463  156.7932 C.ar    1  UNL1        0.1384
     23 C         143.3019  135.1255  157.4775 C.ar    1  UNL1        0.0366
     24 C         143.2555  133.8547  156.6819 C.ar    1  UNL1        0.0002
     25 C         143.0162  133.9048  155.2020 C.ar    1  UNL1       -0.0059
     26 C         142.8232  135.2255  154.5176 C.ar    1  UNL1        0.0002
     27 C         142.8696  136.4963  155.3133 C.ar    1  UNL1        0.0366
     28 C         142.9698  132.6339  154.4064 C.3     1  UNL1        0.0991
     29 N         143.2156  131.3171  155.0814 N.3     1  UNL1       -0.2690
     30 C         144.5556  130.6912  155.3314 C.3     1  UNL1        0.0724
     31 C         144.3328  129.3823  156.0293 C.3     1  UNL1        0.0188
     32 C         142.8551  129.1993  156.2106 C.3     1  UNL1        0.0188
     33 C         142.1646  130.3951  155.6247 C.3     1  UNL1        0.0724
@<TRIPOS>BOND
     1     1     2    2
     2     2     9    1
     3     9    10   ar
     4    10    11   ar
     5    11    12   ar
     6    12    14    1
     7    14    15   ar
     8    15    16   ar
     9    16    17   ar
    10    17    18    1
    11    17    19   ar
    12    19    20   ar
    13    12    13   ar
    14     2     3   am
    15     3     4    1
    16     4     5    1
    17     5     6    1
    18     6    21    1
    19    21    22    1
    20    22    23   ar
    21    23    24   ar
    22    24    25   ar
    23    25    28    1
    24    28    29    1
    25    29    30    1
    26    30    31    1
    27    31    32    1
    28    32    33    1
    29    25    26   ar
    30    26    27   ar
    31     6     7    1
    32     7     8    1
    33    13     9   ar
    34     8     3    1
    35    20    14   ar
    36    27    22   ar
    37    33    29    1
@<TRIPOS>MOLECULE
*****
 33 37 0 0 0
SMALL
GASTEIGER

@<TRIPOS>ATOM
      1 O         140.8956  140.7514  156.4006 O.2     1  UNL1       -0.2647
      2 C         140.9337  139.6104  157.3736 C.2     1  UNL1        0.3045
      3 N         140.1517  139.6878  158.6513 N.am    1  UNL1       -0.2720
      4 C         140.1898  138.5467  159.6243 C.3     1  UNL1        0.0976
      5 C         139.4079  138.6241  160.9019 C.3     1  UNL1        0.0651
      6 C         138.5877  139.8425  161.2066 C.3     1  UNL1        0.1693
      7 C         138.5495  140.9836  160.2337 C.3     1  UNL1        0.0651
      8 C         139.3315  140.9062  158.9560 C.3     1  UNL1        0.0976
      9 C         141.7538  138.3920  157.0689 C.ar    1  UNL1        0.3042
     10 N         143.2460  138.3478  156.9216 N.ar    1  UNL1       -0.1021
     11 N         143.6402  136.9324  156.6196 N.ar    1  UNL1       -0.1068
     12 C         142.3918  136.1018  156.5803 C.ar    1  UNL1        0.2501
     13 O         141.2259  137.0040  156.8579 O.2     1  UNL1       -0.4122
     14 C         142.3214  134.6279  156.3106 C.ar    1  UNL1        0.0553
     15 C         143.1566  133.6774  157.1162 C.ar    1  UNL1        0.0070
     16 C         143.0862  132.2036  156.8465 C.ar    1  UNL1        0.0298
     17 C         142.1807  131.6802  155.7713 C.ar    1  UNL1        0.1401
     18 F         142.1104  130.2063  155.5016 F       1  UNL1       -0.2042
     19 C         141.3456  132.6307  154.9657 C.ar    1  UNL1        0.0298
     20 C         141.4160  134.1046  155.2353 C.ar    1  UNL1        0.0070
     21 O         137.8057  139.9199  162.4843 O.3     1  UNL1       -0.4791
     22 C         138.5227  139.9625  163.8011 C.ar    1  UNL1        0.1384
     23 C         139.0936  141.2557  164.3027 C.ar    1  UNL1        0.0366
     24 C         139.8106  141.2983  165.6196 C.ar    1  UNL1        0.0002
     25 C         139.9568  140.0477  166.4348 C.ar    1  UNL1       -0.0059
     26 C         139.3860  138.7544  165.9332 C.ar    1  UNL1        0.0002
     27 C         138.6690  138.7118  164.6164 C.ar    1  UNL1        0.0366
     28 C         140.6739  140.0904  167.7516 C.3     1  UNL1        0.0991
     29 N         140.4965  141.2674  168.6644 N.3     1  UNL1       -0.2690
     30 C         139.5358  141.3554  169.8130 C.3     1  UNL1        0.0724
     31 C         139.6942  142.7054  170.4474 C.3     1  UNL1        0.0188
     32 C         140.7528  143.4517  169.6908 C.3     1  UNL1        0.0188
     33 C         141.2487  142.5629  168.5889 C.3     1  UNL1        0.0724
@<TRIPOS>BOND
     1     1     2    2
     2     2     9    1
     3     9    10   ar
     4    10    11   ar
     5    11    12   ar
     6    12    14    1
     7    14    15   ar
     8    15    16   ar
     9    16    17   ar
    10    17    18    1
    11    17    19   ar
    12    19    20   ar
    13    12    13   ar
    14     2     3   am
    15     3     4    1
    16     4     5    1
    17     5     6    1
    18     6    21    1
    19    21    22    1
    20    22    23   ar
    21    23    24   ar
    22    24    25   ar
    23    25    28    1
    24    28    29    1
    25    29    30    1
    26    30    31    1
    27    31    32    1
    28    32    33    1
    29    25    26   ar
    30    26    27   ar
    31     6     7    1
    32     7     8    1
    33    13     9   ar
    34     8     3    1
    35    20    14   ar
    36    27    22   ar
    37    33    29    1
@<TRIPOS>MOLECULE
*****
 33 37 0 0 0
SMALL
GASTEIGER

@<TRIPOS>ATOM
      1 O         139.1113  139.9708  156.8414 O.2     1  UNL1       -0.2647
      2 C         139.8222  139.1690  157.8911 C.2     1  UNL1        0.3045
      3 N         139.3354  139.1915  159.3097 N.am    1  UNL1       -0.2720
      4 C         140.0464  138.3897  160.3594 C.3     1  UNL1        0.0976
      5 C         139.5595  138.4121  161.7780 C.3     1  UNL1        0.0651
      6 C         138.3618  139.2362  162.1469 C.3     1  UNL1        0.1693
      7 C         137.6507  140.0380  161.0973 C.3     1  UNL1        0.0651
      8 C         138.1376  140.0156  159.6787 C.3     1  UNL1        0.0976
      9 C         141.0200  138.3449  157.5221 C.ar    1  UNL1        0.3042
     10 N         142.4469  138.8074  157.5367 N.ar    1  UNL1       -0.1021
     11 N         143.3100  137.6619  157.0974 N.ar    1  UNL1       -0.1068
     12 C         142.4165  136.4915  156.8113 C.ar    1  UNL1        0.2501
     13 O         141.0013  136.9136  157.0738 O.2     1  UNL1       -0.4122
     14 C         142.8604  135.1367  156.3447 C.ar    1  UNL1        0.0553
     15 C         142.4932  134.6592  154.9710 C.ar    1  UNL1        0.0070
     16 C         142.9371  133.3045  154.5044 C.ar    1  UNL1        0.0298
     17 C         143.7481  132.4274  155.4115 C.ar    1  UNL1        0.1401
     18 F         144.1920  131.0726  154.9448 F       1  UNL1       -0.2042
     19 C         144.1153  132.9049  156.7852 C.ar    1  UNL1        0.0298
     20 C         143.6714  134.2596  157.2518 C.ar    1  UNL1        0.0070
     21 O         137.8749  139.2587  163.5655 O.3     1  UNL1       -0.4791
     22 C         138.5936  140.0829  164.5922 C.ar    1  UNL1        0.1384
     23 C         138.9529  139.4820  165.9188 C.ar    1  UNL1        0.0366
     24 C         139.6716  140.3062  166.9455 C.ar    1  UNL1        0.0002
     25 C         140.0311  141.7313  166.6456 C.ar    1  UNL1       -0.0059
     26 C         139.6718  142.3322  165.3190 C.ar    1  UNL1        0.0002
     27 C         138.9531  141.5080  164.2923 C.ar    1  UNL1        0.0366
     28 C         140.7498  142.5555  167.6724 C.3     1  UNL1        0.0991
     29 N         141.4085  141.8878  168.8429 N.3     1  UNL1       -0.2690
     30 C         142.7528  141.2225  168.8367 C.3     1  UNL1        0.0724
     31 C         143.0137  140.6918  170.2152 C.3     1  UNL1        0.0188
     32 C         141.8306  141.0290  171.0734 C.3     1  UNL1        0.0188
     33 C         140.8385  141.7683  170.2252 C.3     1  UNL1        0.0724
@<TRIPOS>BOND
     1     1     2    2
     2     2     9    1
     3     9    10   ar
     4    10    11   ar
     5    11    12   ar
     6    12    14    1
     7    14    15   ar
     8    15    16   ar
     9    16    17   ar
    10    17    18    1
    11    17    19   ar
    12    19    20   ar
    13    12    13   ar
    14     2     3   am
    15     3     4    1
    16     4     5    1
    17     5     6    1
    18     6    21    1
    19    21    22    1
    20    22    23   ar
    21    23    24   ar
    22    24    25   ar
    23    25    28    1
    24    28    29    1
    25    29    30    1
    26    30    31    1
    27    31    32    1
    28    32    33    1
    29    25    26   ar
    30    26    27   ar
    31     6     7    1
    32     7     8    1
    33    13     9   ar
    34     8     3    1
    35    20    14   ar
    36    27    22   ar
    37    33    29    1
@<TRIPOS>MOLECULE
*****
 33 37 0 0 0
SMALL
GASTEIGER

@<TRIPOS>ATOM
      1 O         145.2351  141.7113  161.7451 O.2     1  UNL1       -0.2647
      2 C         144.2179  140.6330  161.9747 C.2     1  UNL1        0.3045
      3 N         143.4526  140.0649  160.8164 N.am    1  UNL1       -0.2720
      4 C         142.4354  138.9866  161.0460 C.3     1  UNL1        0.0976
      5 C         141.6702  138.4185  159.8878 C.3     1  UNL1        0.0651
      6 C         141.9221  138.9287  158.4999 C.3     1  UNL1        0.1693
      7 C         142.9392  140.0070  158.2702 C.3     1  UNL1        0.0651
      8 C         143.7045  140.5751  159.4285 C.3     1  UNL1        0.0976
      9 C         143.9660  140.1229  163.3625 C.ar    1  UNL1        0.3042
     10 N         144.8141  139.1337  164.1058 N.ar    1  UNL1       -0.1021
     11 N         144.1941  138.9118  165.4535 N.ar    1  UNL1       -0.1068
     12 C         142.9628  139.7638  165.5432 C.ar    1  UNL1        0.2501
     13 O         142.8219  140.5123  164.2510 O.2     1  UNL1       -0.4122
     14 C         142.0353  139.8520  166.7188 C.ar    1  UNL1        0.0553
     15 C         140.5694  140.0843  166.5018 C.ar    1  UNL1        0.0070
     16 C         139.6420  140.1724  167.6774 C.ar    1  UNL1        0.0298
     17 C         140.1804  140.0282  169.0700 C.ar    1  UNL1        0.1401
     18 F         139.2529  140.1163  170.2456 F       1  UNL1       -0.2042
     19 C         141.6463  139.7958  169.2870 C.ar    1  UNL1        0.0298
     20 C         142.5737  139.7077  168.1114 C.ar    1  UNL1        0.0070
     21 O         141.1568  138.3606  157.3416 O.3     1  UNL1       -0.4791
     22 C         141.6002  137.0755  156.7077 C.ar    1  UNL1        0.1384
     23 C         142.8355  136.3826  157.2017 C.ar    1  UNL1        0.0366
     24 C         143.2789  135.0975  156.5677 C.ar    1  UNL1        0.0002
     25 C         142.4870  134.5052  155.4398 C.ar    1  UNL1       -0.0059
     26 C         141.2517  135.1981  154.9459 C.ar    1  UNL1        0.0002
     27 C         140.8083  136.4832  155.5798 C.ar    1  UNL1        0.0366
     28 C         142.9305  133.2201  154.8060 C.3     1  UNL1        0.0991
     29 N         143.3857  132.0779  155.6652 N.3     1  UNL1       -0.2690
     30 C         142.5229  130.9656  156.1829 C.3     1  UNL1        0.0724
     31 C         143.3877  130.0478  156.9952 C.3     1  UNL1        0.0188
     32 C         144.7850  130.5930  156.9794 C.3     1  UNL1        0.0188
     33 C         144.7838  131.8477  156.1574 C.3     1  UNL1        0.0724
@<TRIPOS>BOND
     1     1     2    2
     2     2     9    1
     3     9    10   ar
     4    10    11   ar
     5    11    12   ar
     6    12    14    1
     7    14    15   ar
     8    15    16   ar
     9    16    17   ar
    10    17    18    1
    11    17    19   ar
    12    19    20   ar
    13    12    13   ar
    14     2     3   am
    15     3     4    1
    16     4     5    1
    17     5     6    1
    18     6    21    1
    19    21    22    1
    20    22    23   ar
    21    23    24   ar
    22    24    25   ar
    23    25    28    1
    24    28    29    1
    25    29    30    1
    26    30    31    1
    27    31    32    1
    28    32    33    1
    29    25    26   ar
    30    26    27   ar
    31     6     7    1
    32     7     8    1
    33    13     9   ar
    34     8     3    1
    35    20    14   ar
    36    27    22   ar
    37    33    29    1
@<TRIPOS>MOLECULE
*****
 33 37 0 0 0
SMALL
GASTEIGER

@<TRIPOS>ATOM
      1 O         144.6874  142.0283  162.1847 O.2     1  UNL1       -0.2647
      2 C         143.8392  140.8233  161.9045 C.2     1  UNL1        0.3045
      3 N         143.5791  140.4021  160.4885 N.am    1  UNL1       -0.2720
      4 C         142.7309  139.1970  160.2083 C.3     1  UNL1        0.0976
      5 C         142.4708  138.7758  158.7925 C.3     1  UNL1        0.0651
      6 C         143.0588  139.5596  157.6567 C.3     1  UNL1        0.1693
      7 C         143.9069  140.7647  157.9369 C.3     1  UNL1        0.0651
      8 C         144.1671  141.1859  159.3528 C.3     1  UNL1        0.0976
      9 C         143.2512  140.0395  163.0402 C.ar    1  UNL1        0.3042
     10 N         143.9998  139.1157  163.9548 N.ar    1  UNL1       -0.1021
     11 N         143.0226  138.5472  164.9406 N.ar    1  UNL1       -0.1068
     12 C         141.6701  139.1195  164.6353 C.ar    1  UNL1        0.2501
     13 O         141.8114  140.0418  163.4609 O.2     1  UNL1       -0.4122
     14 C         140.3994  138.8218  165.3748 C.ar    1  UNL1        0.0553
     15 C         139.9590  139.7129  166.4981 C.ar    1  UNL1        0.0070
     16 C         138.6883  139.4152  167.2375 C.ar    1  UNL1        0.0298
     17 C         137.8580  138.2264  166.8534 C.ar    1  UNL1        0.1401
     18 F         136.5872  137.9287  167.5928 F       1  UNL1       -0.2042
     19 C         138.2984  137.3354  165.7301 C.ar    1  UNL1        0.0298
     20 C         139.5691  137.6331  164.9907 C.ar    1  UNL1        0.0070
     21 O         142.7986  139.1384  156.2408 O.3     1  UNL1       -0.4791
     22 C         142.7239  137.6810  155.8935 C.ar    1  UNL1        0.1384
     23 C         143.9818  136.9070  155.6319 C.ar    1  UNL1        0.0366
     24 C         143.9071  135.4496  155.2846 C.ar    1  UNL1        0.0002
     25 C         142.5745  134.7664  155.1989 C.ar    1  UNL1       -0.0059
     26 C         141.3166  135.5405  155.4605 C.ar    1  UNL1        0.0002
     27 C         141.3913  136.9978  155.8078 C.ar    1  UNL1        0.0366
     28 C         142.4999  133.3091  154.8516 C.3     1  UNL1        0.0991
     29 N         143.3075  132.3109  155.6271 N.3     1  UNL1       -0.2690
     30 C         144.1111  131.1852  155.0467 C.3     1  UNL1        0.0724
     31 C         144.7535  130.4418  156.1800 C.3     1  UNL1        0.0188
     32 C         144.3469  131.1080  157.4610 C.3     1  UNL1        0.0188
     33 C         143.4532  132.2632  157.1193 C.3     1  UNL1        0.0724
@<TRIPOS>BOND
     1     1     2    2
     2     2     9    1
     3     9    10   ar
     4    10    11   ar
     5    11    12   ar
     6    12    14    1
     7    14    15   ar
     8    15    16   ar
     9    16    17   ar
    10    17    18    1
    11    17    19   ar
    12    19    20   ar
    13    12    13   ar
    14     2     3   am
    15     3     4    1
    16     4     5    1
    17     5     6    1
    18     6    21    1
    19    21    22    1
    20    22    23   ar
    21    23    24   ar
    22    24    25   ar
    23    25    28    1
    24    28    29    1
    25    29    30    1
    26    30    31    1
    27    31    32    1
    28    32    33    1
    29    25    26   ar
    30    26    27   ar
    31     6     7    1
    32     7     8    1
    33    13     9   ar
    34     8     3    1
    35    20    14   ar
    36    27    22   ar
    37    33    29    1
