@<TRIPOS>MOLECULE
*****
 42 46 0 0 0
SMALL
GASTEIGER

@<TRIPOS>ATOM
      1 C         141.4050  144.7525  161.9896 C.ar    1  UNL1        0.1859
      2 N         142.6452  144.5369  162.8053 N.ar    1  UNL1       -0.2217
      3 C         142.5882  143.7025  164.0506 C.ar    1  UNL1        0.1361
      4 C         143.8284  143.4869  164.8662 C.ar    1  UNL1        0.1227
      5 N         143.7715  142.6525  166.1114 N.ar    1  UNL1       -0.2231
      6 C         142.4743  142.0337  166.5409 C.ar    1  UNL1        0.1696
      7 N         141.2341  142.2493  165.7252 N.ar    1  UNL1       -0.2076
      8 C         141.2911  143.0837  164.4801 C.ar    1  UNL1        0.1673
      9 N         140.0508  143.2994  163.6643 N.ar    1  UNL1       -0.2704
     10 C         140.1078  144.1338  162.4191 C.ar    1  UNL1        0.2937
     11 O         138.8676  144.3494  161.6034 O.2     1  UNL1       -0.2639
     12 C         142.4174  141.1993  167.7861 C.ar    1  UNL1        0.1025
     13 C         142.0475  141.8305  169.0956 C.ar    1  UNL1        0.2305
     14 N         141.9906  140.9960  170.3409 N.ar    1  UNL1       -0.1893
     15 C         142.3035  139.5304  170.2766 C.ar    1  UNL1        0.2012
     16 N         142.6734  138.8993  168.9670 N.ar    1  UNL1       -0.2281
     17 C         142.7303  139.7337  167.7218 C.ar    1  UNL1        0.0678
     18 C         143.1001  139.1025  166.4122 C.3     1  UNL1        0.0406
     19 C         142.7188  138.3022  165.2023 C.3     1  UNL1        0.0063
     20 C         144.1221  138.8097  165.3540 C.3     1  UNL1        0.0063
     21 O         141.7346  143.2960  169.1600 O.3     1  UNL1       -0.4560
     22 C         140.4960  143.7684  169.8620 C.3     1  UNL1        0.2542
     23 N         141.4619  145.5870  160.7444 N.pl3   1  UNL1       -0.3094
     24 H         141.5610  146.5642  160.8108 H       1  UNL1        0.1487
     25 C         141.3679  144.9324  159.3980 C.3     1  UNL1        0.1349
     26 C         142.1942  140.5293  158.9742 C.ar    1  UNL1        0.1247
     27 C         140.7840  141.0369  158.9141 C.ar    1  UNL1        0.0212
     28 C         140.5086  142.5046  159.0553 C.ar    1  UNL1        0.0178
     29 C         141.6433  143.4648  159.2568 C.ar    1  UNL1        0.0789
     30 N         143.0535  142.9571  159.3169 N.ar    1  UNL1       -0.2451
     31 C         143.3290  141.4894  159.1757 C.ar    1  UNL1        0.1168
     32 S         142.4697  139.0617  158.8330 S.O2    1  UNL1        0.0101
     33 O         140.9953  138.7875  158.8061 O.2     1  UNL1       -0.1686
     34 O         143.9442  139.3358  158.8599 O.2     1  UNL1       -0.1686
     35 C         142.7286  136.9549  157.3347 C.3     1  UNL1        0.0276
     36 C         142.7453  137.5939  158.6917 C.3     1  UNL1        0.1560
     37 C         138.7537  142.6806  164.0938 C.3     1  UNL1        0.1844
     38 C         137.6838  143.5328  164.7097 C.3     1  UNL1        0.0337
     39 C         138.5263  141.2097  163.9074 C.3     1  UNL1        0.4162
     40 F         138.2990  139.7388  163.7210 F       1  UNL1       -0.1680
     41 F         138.2482  141.0669  165.3745 F       1  UNL1       -0.1680
     42 F         138.8045  141.3526  162.4404 F       1  UNL1       -0.1680
@<TRIPOS>BOND
     1    35    36    1
     2    36    32    1
     3    32    33    2
     4    32    34    2
     5    32    26    1
     6    26    27   ar
     7    27    28   ar
     8    28    29   ar
     9    29    25    1
    10    25    23    1
    11    23     1    1
    12     1     2   ar
    13     2     3   ar
    14     3     4   ar
    15     4     5   ar
    16     5     6   ar
    17     6    12    1
    18    12    13   ar
    19    13    21    1
    20    21    22    1
    21    13    14   ar
    22    14    15   ar
    23    15    16   ar
    24    16    17   ar
    25    17    18    1
    26    18    19    1
    27    19    20    1
    28     6     7   ar
    29     7     8   ar
    30     8     9   ar
    31     9    37    1
    32    37    38    1
    33    37    39    1
    34    39    40    1
    35    39    41    1
    36    39    42    1
    37     9    10   ar
    38    10    11    2
    39    29    30   ar
    40    30    31   ar
    41    31    26   ar
    42    10     1   ar
    43     8     3   ar
    44    17    12   ar
    45    20    18    1
    46    23    24    1
@<TRIPOS>MOLECULE
*****
 42 46 0 0 0
SMALL
GASTEIGER

@<TRIPOS>ATOM
      1 C         138.4637  140.5265  161.4817 C.ar    1  UNL1        0.1859
      2 N         139.1708  139.5392  162.3622 N.ar    1  UNL1       -0.2217
      3 C         139.8213  139.9991  163.6332 C.ar    1  UNL1        0.1361
      4 C         140.5283  139.0119  164.5137 C.ar    1  UNL1        0.1227
      5 N         141.1788  139.4718  165.7846 N.ar    1  UNL1       -0.2231
      6 C         141.1222  140.9190  166.1750 C.ar    1  UNL1        0.1696
      7 N         140.4151  141.9062  165.2946 N.ar    1  UNL1       -0.2076
      8 C         139.7647  141.4463  164.0236 C.ar    1  UNL1        0.1673
      9 N         139.0575  142.4336  163.1430 N.ar    1  UNL1       -0.2704
     10 C         138.4071  141.9737  161.8721 C.ar    1  UNL1        0.2937
     11 O         137.7000  142.9609  160.9915 O.2     1  UNL1       -0.2639
     12 C         141.7727  141.3789  167.4461 C.ar    1  UNL1        0.1025
     13 C         141.1531  141.0426  168.7700 C.ar    1  UNL1        0.2305
     14 N         141.8036  141.5025  170.0410 N.ar    1  UNL1       -0.1893
     15 C         143.0737  142.2987  169.9880 C.ar    1  UNL1        0.2012
     16 N         143.6933  142.6350  168.6639 N.ar    1  UNL1       -0.2281
     17 C         143.0428  142.1751  167.3930 C.ar    1  UNL1        0.0678
     18 C         143.6625  142.5114  166.0690 C.3     1  UNL1        0.0406
     19 C         144.2514  142.0720  164.7613 C.3     1  UNL1        0.0063
     20 C         144.1467  143.5332  165.0834 C.3     1  UNL1        0.0063
     21 O         139.8829  140.2464  168.8231 O.3     1  UNL1       -0.4560
     22 C         138.9191  140.4464  169.9549 C.3     1  UNL1        0.2542
     23 N         137.8132  140.0666  160.2106 N.pl3   1  UNL1       -0.3094
     24 H         136.9760  139.5497  160.2452 H       1  UNL1        0.1487
     25 C         138.4383  140.3941  158.8871 C.3     1  UNL1        0.1349
     26 C         141.5599  137.6664  157.1365 C.ar    1  UNL1        0.1247
     27 C         141.9063  138.5592  158.2909 C.ar    1  UNL1        0.0212
     28 C         140.8658  139.4684  158.8745 C.ar    1  UNL1        0.0178
     29 C         139.4788  139.4849  158.3035 C.ar    1  UNL1        0.0789
     30 N         139.1323  138.5921  157.1491 N.ar    1  UNL1       -0.2451
     31 C         140.1729  137.6828  156.5655 C.ar    1  UNL1        0.1168
     32 S         142.6004  136.7571  156.5529 S.O2    1  UNL1        0.0101
     33 O         143.6587  137.7778  156.8495 O.2     1  UNL1       -0.1686
     34 O         141.5421  135.7364  156.2563 O.2     1  UNL1       -0.1686
     35 C         143.8238  134.4653  156.5219 C.3     1  UNL1        0.0276
     36 C         143.6409  135.8478  155.9694 C.3     1  UNL1        0.1560
     37 C         139.0009  143.8808  163.5335 C.3     1  UNL1        0.1844
     38 C         139.8654  144.8826  162.8269 C.3     1  UNL1        0.0337
     39 C         138.0799  144.3262  164.6304 C.3     1  UNL1        0.4162
     40 F         137.1588  144.7716  165.7273 F       1  UNL1       -0.1680
     41 F         139.1574  145.2173  165.1733 F       1  UNL1       -0.1680
     42 F         137.0024  143.4351  164.0875 F       1  UNL1       -0.1680
@<TRIPOS>BOND
     1    35    36    1
     2    36    32    1
     3    32    33    2
     4    32    34    2
     5    32    26    1
     6    26    27   ar
     7    27    28   ar
     8    28    29   ar
     9    29    25    1
    10    25    23    1
    11    23     1    1
    12     1     2   ar
    13     2     3   ar
    14     3     4   ar
    15     4     5   ar
    16     5     6   ar
    17     6    12    1
    18    12    13   ar
    19    13    21    1
    20    21    22    1
    21    13    14   ar
    22    14    15   ar
    23    15    16   ar
    24    16    17   ar
    25    17    18    1
    26    18    19    1
    27    19    20    1
    28     6     7   ar
    29     7     8   ar
    30     8     9   ar
    31     9    37    1
    32    37    38    1
    33    37    39    1
    34    39    40    1
    35    39    41    1
    36    39    42    1
    37     9    10   ar
    38    10    11    2
    39    29    30   ar
    40    30    31   ar
    41    31    26   ar
    42    10     1   ar
    43     8     3   ar
    44    17    12   ar
    45    20    18    1
    46    23    24    1
@<TRIPOS>MOLECULE
*****
 42 46 0 0 0
SMALL
GASTEIGER

@<TRIPOS>ATOM
      1 C         140.1569  143.4638  161.4950 C.ar    1  UNL1        0.1859
      2 N         139.2756  142.7680  162.4896 N.ar    1  UNL1       -0.2217
      3 C         139.8397  142.3145  163.8034 C.ar    1  UNL1        0.1361
      4 C         138.9584  141.6187  164.7980 C.ar    1  UNL1        0.1227
      5 N         139.5226  141.1653  166.1117 N.ar    1  UNL1       -0.2231
      6 C         140.9680  141.4077  166.4310 C.ar    1  UNL1        0.1696
      7 N         141.8493  142.1035  165.4365 N.ar    1  UNL1       -0.2076
      8 C         141.2852  142.5569  164.1227 C.ar    1  UNL1        0.1673
      9 N         142.1665  143.2527  163.1281 N.ar    1  UNL1       -0.2704
     10 C         141.6023  143.7062  161.8143 C.ar    1  UNL1        0.2937
     11 O         142.4837  144.4020  160.8197 O.2     1  UNL1       -0.2639
     12 C         141.5322  140.9542  167.7449 C.ar    1  UNL1        0.1025
     13 C         141.1703  141.6796  169.0069 C.ar    1  UNL1        0.2305
     14 N         141.7344  141.2262  170.3208 N.ar    1  UNL1       -0.1893
     15 C         142.6604  140.0473  170.3725 C.ar    1  UNL1        0.2012
     16 N         143.0223  139.3218  169.1104 N.ar    1  UNL1       -0.2281
     17 C         142.4582  139.7753  167.7966 C.ar    1  UNL1        0.0678
     18 C         142.8201  139.0499  166.5345 C.3     1  UNL1        0.0406
     19 C         143.8300  138.6967  165.4831 C.3     1  UNL1        0.0063
     20 C         142.4370  138.1466  165.3999 C.3     1  UNL1        0.0063
     21 O         140.2442  142.8585  168.9552 O.3     1  UNL1       -0.4560
     22 C         140.4323  144.0023  169.9073 C.3     1  UNL1        0.2542
     23 N         139.5928  143.9173  160.1811 N.pl3   1  UNL1       -0.3094
     24 H         139.6231  144.8700  159.9349 H       1  UNL1        0.1487
     25 C         138.9823  142.9191  159.2425 C.3     1  UNL1        0.1349
     26 C         141.2901  139.2428  158.0557 C.ar    1  UNL1        0.1247
     27 C         141.9856  140.5688  158.1441 C.ar    1  UNL1        0.0212
     28 C         141.2164  141.7943  158.5396 C.ar    1  UNL1        0.0178
     29 C         139.7516  141.6937  158.8469 C.ar    1  UNL1        0.0789
     30 N         139.0561  140.3676  158.7586 N.ar    1  UNL1       -0.2451
     31 C         139.8254  139.1421  158.3630 C.ar    1  UNL1        0.1168
     32 S         142.0593  138.0173  157.6601 S.O2    1  UNL1        0.0101
     33 O         143.3156  138.6304  158.2040 O.2     1  UNL1       -0.1686
     34 O         140.8030  137.4043  157.1163 O.2     1  UNL1       -0.1686
     35 C         143.4901  136.7231  155.9201 C.3     1  UNL1        0.0276
     36 C         142.8285  136.7918  157.2645 C.3     1  UNL1        0.1560
     37 C         143.6119  143.4951  163.4473 C.3     1  UNL1        0.1844
     38 C         144.6695  142.6134  162.8522 C.3     1  UNL1        0.0337
     39 C         143.9998  144.6191  164.3617 C.3     1  UNL1        0.4162
     40 F         144.3877  145.7432  165.2761 F       1  UNL1       -0.1680
     41 F         143.2532  145.5854  163.4906 F       1  UNL1       -0.1680
     42 F         144.7465  143.6529  165.2328 F       1  UNL1       -0.1680
@<TRIPOS>BOND
     1    35    36    1
     2    36    32    1
     3    32    33    2
     4    32    34    2
     5    32    26    1
     6    26    27   ar
     7    27    28   ar
     8    28    29   ar
     9    29    25    1
    10    25    23    1
    11    23     1    1
    12     1     2   ar
    13     2     3   ar
    14     3     4   ar
    15     4     5   ar
    16     5     6   ar
    17     6    12    1
    18    12    13   ar
    19    13    21    1
    20    21    22    1
    21    13    14   ar
    22    14    15   ar
    23    15    16   ar
    24    16    17   ar
    25    17    18    1
    26    18    19    1
    27    19    20    1
    28     6     7   ar
    29     7     8   ar
    30     8     9   ar
    31     9    37    1
    32    37    38    1
    33    37    39    1
    34    39    40    1
    35    39    41    1
    36    39    42    1
    37     9    10   ar
    38    10    11    2
    39    29    30   ar
    40    30    31   ar
    41    31    26   ar
    42    10     1   ar
    43     8     3   ar
    44    17    12   ar
    45    20    18    1
    46    23    24    1
@<TRIPOS>MOLECULE
*****
 42 46 0 0 0
SMALL
GASTEIGER

@<TRIPOS>ATOM
      1 C         142.4157  137.9861  162.1885 C.ar    1  UNL1        0.1859
      2 N         143.4177  138.6494  163.0863 N.ar    1  UNL1       -0.2217
      3 C         142.9541  139.4264  164.2827 C.ar    1  UNL1        0.1361
      4 C         143.9561  140.0897  165.1805 C.ar    1  UNL1        0.1227
      5 N         143.4925  140.8666  166.3769 N.ar    1  UNL1       -0.2231
      6 C         142.0269  140.9802  166.6755 C.ar    1  UNL1        0.1696
      7 N         141.0250  140.3169  165.7778 N.ar    1  UNL1       -0.2076
      8 C         141.4886  139.5400  164.5814 C.ar    1  UNL1        0.1673
      9 N         140.4866  138.8766  163.6835 N.ar    1  UNL1       -0.2704
     10 C         140.9502  138.0997  162.4871 C.ar    1  UNL1        0.2937
     11 O         139.9482  137.4363  161.5893 O.2     1  UNL1       -0.2639
     12 C         141.5634  141.7572  167.8720 C.ar    1  UNL1        0.1025
     13 C         142.0675  141.4009  169.2390 C.ar    1  UNL1        0.2305
     14 N         141.6040  142.1779  170.4355 N.ar    1  UNL1       -0.1893
     15 C         140.6362  143.3112  170.2648 C.ar    1  UNL1        0.2012
     16 N         140.1320  143.6675  168.8977 N.ar    1  UNL1       -0.2281
     17 C         140.5956  142.8905  167.7013 C.ar    1  UNL1        0.0678
     18 C         140.0915  143.2468  166.3342 C.3     1  UNL1        0.0406
     19 C         140.3067  143.8935  164.9980 C.3     1  UNL1        0.0063
     20 C         139.0030  143.2172  165.3026 C.3     1  UNL1        0.0063
     21 O         143.0353  140.2676  169.4097 O.3     1  UNL1       -0.4560
     22 C         142.5433  138.9215  169.8526 C.3     1  UNL1        0.2542
     23 N         142.8793  137.2091  160.9920 N.pl3   1  UNL1       -0.3094
     24 H         143.1363  136.2636  161.0884 H       1  UNL1        0.1487
     25 C         142.9513  137.8726  159.6487 C.3     1  UNL1        0.1349
     26 C         142.0498  142.2640  159.2573 C.ar    1  UNL1        0.1247
     27 C         140.9778  141.2509  158.9839 C.ar    1  UNL1        0.0212
     28 C         141.2783  139.7872  159.1144 C.ar    1  UNL1        0.0178
     29 C         142.6508  139.3364  159.5183 C.ar    1  UNL1        0.0789
     30 N         143.7228  140.3494  159.7916 N.ar    1  UNL1       -0.2451
     31 C         143.4222  141.8132  159.6611 C.ar    1  UNL1        0.1168
     32 S         141.7493  143.7277  159.1268 S.O2    1  UNL1        0.0101
     33 O         140.7174  143.4227  158.0817 O.2     1  UNL1       -0.1686
     34 O         142.7811  144.0327  160.1719 O.2     1  UNL1       -0.1686
     35 C         141.7038  145.8966  157.6972 C.3     1  UNL1        0.0276
     36 C         141.4488  145.1916  158.9963 C.3     1  UNL1        0.1560
     37 C         139.0210  138.9902  163.9822 C.3     1  UNL1        0.1844
     38 C         138.1352  139.8091  163.0906 C.3     1  UNL1        0.0337
     39 C         138.4412  138.2851  165.1724 C.3     1  UNL1        0.4162
     40 F         137.8615  137.5798  166.3626 F       1  UNL1       -0.1680
     41 F         137.7311  139.5442  165.5725 F       1  UNL1       -0.1680
     42 F         139.1514  137.0259  164.7723 F       1  UNL1       -0.1680
@<TRIPOS>BOND
     1    35    36    1
     2    36    32    1
     3    32    33    2
     4    32    34    2
     5    32    26    1
     6    26    27   ar
     7    27    28   ar
     8    28    29   ar
     9    29    25    1
    10    25    23    1
    11    23     1    1
    12     1     2   ar
    13     2     3   ar
    14     3     4   ar
    15     4     5   ar
    16     5     6   ar
    17     6    12    1
    18    12    13   ar
    19    13    21    1
    20    21    22    1
    21    13    14   ar
    22    14    15   ar
    23    15    16   ar
    24    16    17   ar
    25    17    18    1
    26    18    19    1
    27    19    20    1
    28     6     7   ar
    29     7     8   ar
    30     8     9   ar
    31     9    37    1
    32    37    38    1
    33    37    39    1
    34    39    40    1
    35    39    41    1
    36    39    42    1
    37     9    10   ar
    38    10    11    2
    39    29    30   ar
    40    30    31   ar
    41    31    26   ar
    42    10     1   ar
    43     8     3   ar
    44    17    12   ar
    45    20    18    1
    46    23    24    1
@<TRIPOS>MOLECULE
*****
 42 46 0 0 0
SMALL
GASTEIGER

@<TRIPOS>ATOM
      1 C         138.2283  140.4079  159.8961 C.ar    1  UNL1        0.1859
      2 N         138.5241  139.1551  160.6662 N.ar    1  UNL1       -0.2217
      3 C         139.1213  139.2423  162.0395 C.ar    1  UNL1        0.1361
      4 C         139.4171  137.9895  162.8096 C.ar    1  UNL1        0.1227
      5 N         140.0142  138.0766  164.1828 N.ar    1  UNL1       -0.2231
      6 C         140.3155  139.4166  164.7860 C.ar    1  UNL1        0.1696
      7 N         140.0197  140.6693  164.0159 N.ar    1  UNL1       -0.2076
      8 C         139.4226  140.5822  162.6427 C.ar    1  UNL1        0.1673
      9 N         139.1267  141.8350  161.8725 N.ar    1  UNL1       -0.2704
     10 C         138.5296  141.7478  160.4993 C.ar    1  UNL1        0.2937
     11 O         138.2338  143.0006  159.7292 O.2     1  UNL1       -0.2639
     12 C         140.9127  139.5037  166.1593 C.ar    1  UNL1        0.1025
     13 C         140.0231  139.6797  167.3541 C.ar    1  UNL1        0.2305
     14 N         140.6203  139.7668  168.7274 N.ar    1  UNL1       -0.1893
     15 C         142.1070  139.6779  168.9058 C.ar    1  UNL1        0.2012
     16 N         142.9965  139.5019  167.7108 N.ar    1  UNL1       -0.2281
     17 C         142.3994  139.4148  166.3376 C.ar    1  UNL1        0.0678
     18 C         143.2889  139.2388  165.1427 C.3     1  UNL1        0.0406
     19 C         143.4998  138.7471  163.7413 C.3     1  UNL1        0.0063
     20 C         144.6187  139.4256  164.4744 C.3     1  UNL1        0.0063
     21 O         138.5364  139.7686  167.1757 O.3     1  UNL1       -0.4560
     22 C         137.7172  138.5162  167.0731 C.3     1  UNL1        0.2542
     23 N         137.6311  140.3208  158.5228 N.pl3   1  UNL1       -0.3094
     24 H         136.6593  140.2059  158.4150 H       1  UNL1        0.1487
     25 C         138.5146  140.4088  157.3139 C.3     1  UNL1        0.1349
     26 C         141.5580  137.1923  156.5124 C.ar    1  UNL1        0.1247
     27 C         141.9703  138.4607  157.1990 C.ar    1  UNL1        0.0212
     28 C         140.9558  139.5328  157.4662 C.ar    1  UNL1        0.0178
     29 C         139.5290  139.3366  157.0467 C.ar    1  UNL1        0.0789
     30 N         139.1168  138.0683  156.3601 N.ar    1  UNL1       -0.2451
     31 C         140.1313  136.9962  156.0930 C.ar    1  UNL1        0.1168
     32 S         142.5724  136.1202  156.2453 S.O2    1  UNL1        0.0101
     33 O         143.6710  137.0602  156.6446 O.2     1  UNL1       -0.1686
     34 O         141.4738  135.1803  155.8459 O.2     1  UNL1       -0.1686
     35 C         143.8730  134.0094  157.0219 C.3     1  UNL1        0.0276
     36 C         143.5869  135.0480  155.9781 C.3     1  UNL1        0.1560
     37 C         139.4280  143.1749  162.4757 C.3     1  UNL1        0.1844
     38 C         140.6426  143.9386  162.0377 C.3     1  UNL1        0.0337
     39 C         138.5149  143.7512  163.5169 C.3     1  UNL1        0.4162
     40 F         137.6017  144.3274  164.5581 F       1  UNL1       -0.1680
     41 F         139.7043  144.2363  164.2915 F       1  UNL1       -0.1680
     42 F         137.3256  143.2661  162.7423 F       1  UNL1       -0.1680
@<TRIPOS>BOND
     1    35    36    1
     2    36    32    1
     3    32    33    2
     4    32    34    2
     5    32    26    1
     6    26    27   ar
     7    27    28   ar
     8    28    29   ar
     9    29    25    1
    10    25    23    1
    11    23     1    1
    12     1     2   ar
    13     2     3   ar
    14     3     4   ar
    15     4     5   ar
    16     5     6   ar
    17     6    12    1
    18    12    13   ar
    19    13    21    1
    20    21    22    1
    21    13    14   ar
    22    14    15   ar
    23    15    16   ar
    24    16    17   ar
    25    17    18    1
    26    18    19    1
    27    19    20    1
    28     6     7   ar
    29     7     8   ar
    30     8     9   ar
    31     9    37    1
    32    37    38    1
    33    37    39    1
    34    39    40    1
    35    39    41    1
    36    39    42    1
    37     9    10   ar
    38    10    11    2
    39    29    30   ar
    40    30    31   ar
    41    31    26   ar
    42    10     1   ar
    43     8     3   ar
    44    17    12   ar
    45    20    18    1
    46    23    24    1
@<TRIPOS>MOLECULE
*****
 42 46 0 0 0
SMALL
GASTEIGER

@<TRIPOS>ATOM
      1 C         138.3830  140.5578  161.6771 C.ar    1  UNL1        0.1859
      2 N         139.0627  139.5488  162.5544 N.ar    1  UNL1       -0.2217
      3 C         139.7573  139.9918  163.8080 C.ar    1  UNL1        0.1361
      4 C         140.4371  138.9828  164.6854 C.ar    1  UNL1        0.1227
      5 N         141.1317  139.4258  165.9389 N.ar    1  UNL1       -0.2231
      6 C         141.1464  140.8778  166.3150 C.ar    1  UNL1        0.1696
      7 N         140.4667  141.8868  165.4376 N.ar    1  UNL1       -0.2076
      8 C         139.7721  141.4438  164.1841 C.ar    1  UNL1        0.1673
      9 N         139.0923  142.4528  163.3067 N.ar    1  UNL1       -0.2704
     10 C         138.3978  142.0098  162.0532 C.ar    1  UNL1        0.2937
     11 O         137.7179  143.0189  161.1758 O.2     1  UNL1       -0.2639
     12 C         141.8411  141.3208  167.5686 C.ar    1  UNL1        0.1025
     13 C         141.2924  140.9290  168.9085 C.ar    1  UNL1        0.2305
     14 N         141.9870  141.3720  170.1621 N.ar    1  UNL1       -0.1893
     15 C         143.2303  142.2068  170.0756 C.ar    1  UNL1        0.2012
     16 N         143.7789  142.5986  168.7356 N.ar    1  UNL1       -0.2281
     17 C         143.0843  142.1556  167.4821 C.ar    1  UNL1        0.0678
     18 C         143.6330  142.5474  166.1421 C.3     1  UNL1        0.0406
     19 C         144.0401  142.1777  164.7465 C.3     1  UNL1        0.0063
     20 C         144.1761  143.5956  165.2168 C.3     1  UNL1        0.0063
     21 O         140.0491  140.0943  168.9949 O.3     1  UNL1       -0.4560
     22 C         138.9555  140.4742  169.9487 C.3     1  UNL1        0.2542
     23 N         137.6884  140.1149  160.4235 N.pl3   1  UNL1       -0.3094
     24 H         136.7438  139.8390  160.4553 H       1  UNL1        0.1487
     25 C         138.4329  140.0921  159.1215 C.3     1  UNL1        0.1349
     26 C         139.4184  143.9504  157.0257 C.ar    1  UNL1        0.1247
     27 C         138.1466  143.2243  156.7013 C.ar    1  UNL1        0.0212
     28 C         137.8181  141.9382  157.3998 C.ar    1  UNL1        0.0178
     29 C         138.7614  141.3782  158.4229 C.ar    1  UNL1        0.0789
     30 N         140.0332  142.1043  158.7474 N.ar    1  UNL1       -0.2451
     31 C         140.3617  143.3905  158.0487 C.ar    1  UNL1        0.1168
     32 S         139.7469  145.2364  156.3271 S.O2    1  UNL1        0.0101
     33 O         138.5955  145.0216  155.3901 O.2     1  UNL1       -0.1686
     34 O         140.8983  145.4513  157.2641 O.2     1  UNL1       -0.1686
     35 C         138.9809  147.3417  155.0113 C.3     1  UNL1        0.0276
     36 C         140.0754  146.5226  155.6285 C.3     1  UNL1        0.1560
     37 C         139.1071  143.9048  163.6828 C.3     1  UNL1        0.1844
     38 C         140.1004  144.8335  163.0496 C.3     1  UNL1        0.0337
     39 C         138.1287  144.4281  164.6921 C.3     1  UNL1        0.4162
     40 F         137.1501  144.9515  165.7015 F       1  UNL1       -0.1680
     41 F         139.2314  144.5411  165.7026 F       1  UNL1       -0.1680
     42 F         137.0259  144.3152  163.6816 F       1  UNL1       -0.1680
@<TRIPOS>BOND
     1    35    36    1
     2    36    32    1
     3    32    33    2
     4    32    34    2
     5    32    26    1
     6    26    27   ar
     7    27    28   ar
     8    28    29   ar
     9    29    25    1
    10    25    23    1
    11    23     1    1
    12     1     2   ar
    13     2     3   ar
    14     3     4   ar
    15     4     5   ar
    16     5     6   ar
    17     6    12    1
    18    12    13   ar
    19    13    21    1
    20    21    22    1
    21    13    14   ar
    22    14    15   ar
    23    15    16   ar
    24    16    17   ar
    25    17    18    1
    26    18    19    1
    27    19    20    1
    28     6     7   ar
    29     7     8   ar
    30     8     9   ar
    31     9    37    1
    32    37    38    1
    33    37    39    1
    34    39    40    1
    35    39    41    1
    36    39    42    1
    37     9    10   ar
    38    10    11    2
    39    29    30   ar
    40    30    31   ar
    41    31    26   ar
    42    10     1   ar
    43     8     3   ar
    44    17    12   ar
    45    20    18    1
    46    23    24    1
@<TRIPOS>MOLECULE
*****
 42 46 0 0 0
SMALL
GASTEIGER

@<TRIPOS>ATOM
      1 C         143.1408  143.2523  162.6749 C.ar    1  UNL1        0.1859
      2 N         143.5912  142.2795  163.7239 N.ar    1  UNL1       -0.2217
      3 C         142.6483  141.8606  164.8128 C.ar    1  UNL1        0.1361
      4 C         143.0988  140.8878  165.8618 C.ar    1  UNL1        0.1227
      5 N         142.1559  140.4689  166.9506 N.ar    1  UNL1       -0.2231
      6 C         140.7625  141.0228  166.9902 C.ar    1  UNL1        0.1696
      7 N         140.3120  141.9956  165.9411 N.ar    1  UNL1       -0.2076
      8 C         141.2549  142.4145  164.8524 C.ar    1  UNL1        0.1673
      9 N         140.8044  143.3874  163.8032 N.ar    1  UNL1       -0.2704
     10 C         141.7474  143.8063  162.7145 C.ar    1  UNL1        0.2937
     11 O         141.2969  144.7791  161.6653 O.2     1  UNL1       -0.2639
     12 C         139.8195  140.6039  168.0790 C.ar    1  UNL1        0.1025
     13 C         139.9314  141.2149  169.4443 C.ar    1  UNL1        0.2305
     14 N         138.9885  140.7960  170.5331 N.ar    1  UNL1       -0.1893
     15 C         137.9337  139.7660  170.2566 C.ar    1  UNL1        0.2012
     16 N         137.8218  139.1549  168.8912 N.ar    1  UNL1       -0.2281
     17 C         138.7647  139.5739  167.8025 C.ar    1  UNL1        0.0678
     18 C         138.6529  138.9628  166.4371 C.3     1  UNL1        0.0406
     19 C         138.7300  137.7626  165.5408 C.3     1  UNL1        0.0063
     20 C         138.3819  139.1047  164.9687 C.3     1  UNL1        0.0063
     21 O         140.9862  142.2450  169.7209 O.3     1  UNL1       -0.4560
     22 C         140.6148  143.6961  169.8006 C.3     1  UNL1        0.2542
     23 N         144.0837  143.6713  161.5860 N.pl3   1  UNL1       -0.3094
     24 H         144.1881  144.6250  161.3652 H       1  UNL1        0.1487
     25 C         144.8676  142.6371  160.8337 C.3     1  UNL1        0.1349
     26 C         142.7207  139.4432  158.5014 C.ar    1  UNL1        0.1247
     27 C         143.3158  139.1221  159.8403 C.ar    1  UNL1        0.0212
     28 C         144.0314  140.1867  160.6178 C.ar    1  UNL1        0.0178
     29 C         144.1520  141.5725  160.0563 C.ar    1  UNL1        0.0789
     30 N         143.5569  141.8936  158.7173 N.ar    1  UNL1       -0.2451
     31 C         142.8413  140.8289  157.9399 C.ar    1  UNL1        0.1168
     32 S         142.0051  138.3786  157.7239 S.O2    1  UNL1        0.0101
     33 O         143.3216  137.8478  157.2391 O.2     1  UNL1       -0.1686
     34 O         140.6887  138.9094  158.2088 O.2     1  UNL1       -0.1686
     35 C         141.3549  137.3076  155.4479 C.3     1  UNL1        0.0276
     36 C         141.2895  137.3139  156.9464 C.3     1  UNL1        0.1560
     37 C         139.4110  143.9413  163.8429 C.3     1  UNL1        0.1844
     38 C         139.0228  144.9192  164.9121 C.3     1  UNL1        0.0337
     39 C         138.4059  143.5175  162.8133 C.3     1  UNL1        0.4162
     40 F         137.4006  143.0937  161.7838 F       1  UNL1       -0.1680
     41 F         138.8444  142.0919  162.9721 F       1  UNL1       -0.1680
     42 F         137.9674  144.9431  162.6546 F       1  UNL1       -0.1680
@<TRIPOS>BOND
     1    35    36    1
     2    36    32    1
     3    32    33    2
     4    32    34    2
     5    32    26    1
     6    26    27   ar
     7    27    28   ar
     8    28    29   ar
     9    29    25    1
    10    25    23    1
    11    23     1    1
    12     1     2   ar
    13     2     3   ar
    14     3     4   ar
    15     4     5   ar
    16     5     6   ar
    17     6    12    1
    18    12    13   ar
    19    13    21    1
    20    21    22    1
    21    13    14   ar
    22    14    15   ar
    23    15    16   ar
    24    16    17   ar
    25    17    18    1
    26    18    19    1
    27    19    20    1
    28     6     7   ar
    29     7     8   ar
    30     8     9   ar
    31     9    37    1
    32    37    38    1
    33    37    39    1
    34    39    40    1
    35    39    41    1
    36    39    42    1
    37     9    10   ar
    38    10    11    2
    39    29    30   ar
    40    30    31   ar
    41    31    26   ar
    42    10     1   ar
    43     8     3   ar
    44    17    12   ar
    45    20    18    1
    46    23    24    1
@<TRIPOS>MOLECULE
*****
 42 46 0 0 0
SMALL
GASTEIGER

@<TRIPOS>ATOM
      1 C         141.0679  140.2934  159.0343 C.ar    1  UNL1        0.1859
      2 N         141.6994  141.4699  159.7176 N.ar    1  UNL1       -0.2217
      3 C         141.6304  141.5961  161.2107 C.ar    1  UNL1        0.1361
      4 C         142.2619  142.7727  161.8940 C.ar    1  UNL1        0.1227
      5 N         142.1929  142.8988  163.3870 N.ar    1  UNL1       -0.2231
      6 C         141.4923  141.8483  164.1968 C.ar    1  UNL1        0.1696
      7 N         140.8608  140.6718  163.5136 N.ar    1  UNL1       -0.2076
      8 C         140.9298  140.5457  162.0205 C.ar    1  UNL1        0.1673
      9 N         140.2983  139.3691  161.3372 N.ar    1  UNL1       -0.2704
     10 C         140.3673  139.2430  159.8441 C.ar    1  UNL1        0.2937
     11 O         139.7358  138.0664  159.1608 O.2     1  UNL1       -0.2639
     12 C         141.4233  141.9745  165.6900 C.ar    1  UNL1        0.1025
     13 C         142.3243  141.1441  166.5553 C.ar    1  UNL1        0.2305
     14 N         142.2553  141.2703  168.0484 N.ar    1  UNL1       -0.1893
     15 C         141.2853  142.2268  168.6762 C.ar    1  UNL1        0.2012
     16 N         140.3843  143.0572  167.8108 N.ar    1  UNL1       -0.2281
     17 C         140.4533  142.9310  166.3178 C.ar    1  UNL1        0.0678
     18 C         139.5523  143.7614  165.4524 C.3     1  UNL1        0.0406
     19 C         139.3716  144.7875  164.3733 C.3     1  UNL1        0.0063
     20 C         138.1725  144.1735  165.0328 C.3     1  UNL1        0.0063
     21 O         143.2943  140.1876  165.9275 O.3     1  UNL1       -0.4560
     22 C         142.9698  138.7244  165.8635 C.3     1  UNL1        0.2542
     23 N         141.1369  140.1672  157.5412 N.pl3   1  UNL1       -0.3094
     24 H         140.4228  140.5493  156.9814 H       1  UNL1        0.1487
     25 C         142.2938  139.4590  156.9010 C.3     1  UNL1        0.1349
     26 C         141.9928  135.0738  155.9370 C.ar    1  UNL1        0.1247
     27 C         140.9389  136.0231  155.4489 C.ar    1  UNL1        0.0212
     28 C         141.0392  137.4848  155.7703 C.ar    1  UNL1        0.0178
     29 C         142.1935  137.9973  156.5797 C.ar    1  UNL1        0.0789
     30 N         143.2474  137.0480  157.0677 N.ar    1  UNL1       -0.2451
     31 C         143.1470  135.5862  156.7463 C.ar    1  UNL1        0.1168
     32 S         141.8925  133.6121  155.6156 S.O2    1  UNL1        0.0101
     33 O         141.2386  133.9446  154.3073 O.2     1  UNL1       -0.1686
     34 O         142.5463  133.2796  156.9240 O.2     1  UNL1       -0.1686
     35 C         142.5006  131.5959  154.0939 C.3     1  UNL1        0.0276
     36 C         141.7922  132.1503  155.2943 C.3     1  UNL1        0.1560
     37 C         139.5978  138.3186  162.1470 C.3     1  UNL1        0.1844
     38 C         138.1088  138.1651  162.0490 C.3     1  UNL1        0.0337
     39 C         140.3861  137.4218  163.0548 C.3     1  UNL1        0.4162
     40 F         141.1745  136.5248  163.9627 F       1  UNL1       -0.1680
     41 F         139.3077  137.5241  164.0924 F       1  UNL1       -0.1680
     42 F         141.4645  137.3195  162.0173 F       1  UNL1       -0.1680
@<TRIPOS>BOND
     1    35    36    1
     2    36    32    1
     3    32    33    2
     4    32    34    2
     5    32    26    1
     6    26    27   ar
     7    27    28   ar
     8    28    29   ar
     9    29    25    1
    10    25    23    1
    11    23     1    1
    12     1     2   ar
    13     2     3   ar
    14     3     4   ar
    15     4     5   ar
    16     5     6   ar
    17     6    12    1
    18    12    13   ar
    19    13    21    1
    20    21    22    1
    21    13    14   ar
    22    14    15   ar
    23    15    16   ar
    24    16    17   ar
    25    17    18    1
    26    18    19    1
    27    19    20    1
    28     6     7   ar
    29     7     8   ar
    30     8     9   ar
    31     9    37    1
    32    37    38    1
    33    37    39    1
    34    39    40    1
    35    39    41    1
    36    39    42    1
    37     9    10   ar
    38    10    11    2
    39    29    30   ar
    40    30    31   ar
    41    31    26   ar
    42    10     1   ar
    43     8     3   ar
    44    17    12   ar
    45    20    18    1
    46    23    24    1
@<TRIPOS>MOLECULE
*****
 42 46 0 0 0
SMALL
GASTEIGER

@<TRIPOS>ATOM
      1 C         138.6074  140.6550  161.3011 C.ar    1  UNL1        0.1859
      2 N         139.2639  139.6512  162.2018 N.ar    1  UNL1       -0.2217
      3 C         139.9038  140.0982  163.4828 C.ar    1  UNL1        0.1361
      4 C         140.5602  139.0943  164.3834 C.ar    1  UNL1        0.1227
      5 N         141.2000  139.5413  165.6643 N.ar    1  UNL1       -0.2231
      6 C         141.1834  140.9922  166.0445 C.ar    1  UNL1        0.1696
      7 N         140.5270  141.9961  165.1439 N.ar    1  UNL1       -0.2076
      8 C         139.8871  141.5491  163.8630 C.ar    1  UNL1        0.1673
      9 N         139.2306  142.5530  162.9623 N.ar    1  UNL1       -0.2704
     10 C         138.5908  142.1060  161.6814 C.ar    1  UNL1        0.2937
     11 O         137.9343  143.1099  160.7806 O.2     1  UNL1       -0.2639
     12 C         141.8233  141.4392  167.3255 C.ar    1  UNL1        0.1025
     13 C         141.1901  141.0937  168.6407 C.ar    1  UNL1        0.2305
     14 N         141.8300  141.5407  169.9216 N.ar    1  UNL1       -0.1893
     15 C         143.1031  142.3332  169.8874 C.ar    1  UNL1        0.2012
     16 N         143.7363  142.6787  168.5721 N.ar    1  UNL1       -0.2281
     17 C         143.0964  142.2317  167.2913 C.ar    1  UNL1        0.0678
     18 C         143.7296  142.5772  165.9760 C.3     1  UNL1        0.0406
     19 C         144.4840  142.1608  164.7482 C.3     1  UNL1        0.0063
     20 C         144.0720  143.5920  164.9259 C.3     1  UNL1        0.0063
     21 O         139.9170  140.3012  168.6749 O.3     1  UNL1       -0.4560
     22 C         138.9975  140.4098  169.8551 C.3     1  UNL1        0.2542
     23 N         137.9675  140.2080  160.0202 N.pl3   1  UNL1       -0.3094
     24 H         137.2798  139.5037  160.0331 H       1  UNL1        0.1487
     25 C         138.3755  140.8342  158.7196 C.3     1  UNL1        0.1349
     26 C         142.7365  141.2292  157.6828 C.ar    1  UNL1        0.1247
     27 C         142.0967  139.8733  157.7304 C.ar    1  UNL1        0.0212
     28 C         140.6431  139.7416  158.0760 C.ar    1  UNL1        0.0178
     29 C         139.8291  140.9659  158.3740 C.ar    1  UNL1        0.0789
     30 N         140.4689  142.3218  158.3265 N.ar    1  UNL1       -0.2451
     31 C         141.9226  142.4534  157.9809 C.ar    1  UNL1        0.1168
     32 S         144.1902  141.3609  157.3373 S.O2    1  UNL1        0.0101
     33 O         143.9220  142.7014  156.7201 O.2     1  UNL1       -0.1686
     34 O         144.4584  140.0203  157.9545 O.2     1  UNL1       -0.1686
     35 C         146.1169  141.1735  155.6044 C.3     1  UNL1        0.0276
     36 C         145.6439  141.4925  156.9917 C.3     1  UNL1        0.1560
     37 C         139.2140  144.0039  163.3425 C.3     1  UNL1        0.1844
     38 C         140.1010  144.9776  162.6246 C.3     1  UNL1        0.0337
     39 C         138.3105  144.4812  164.4406 C.3     1  UNL1        0.4162
     40 F         137.4070  144.9585  165.5387 F       1  UNL1       -0.1680
     41 F         137.1276  143.9130  163.7141 F       1  UNL1       -0.1680
     42 F         139.4935  145.0493  165.1670 F       1  UNL1       -0.1680
@<TRIPOS>BOND
     1    35    36    1
     2    36    32    1
     3    32    33    2
     4    32    34    2
     5    32    26    1
     6    26    27   ar
     7    27    28   ar
     8    28    29   ar
     9    29    25    1
    10    25    23    1
    11    23     1    1
    12     1     2   ar
    13     2     3   ar
    14     3     4   ar
    15     4     5   ar
    16     5     6   ar
    17     6    12    1
    18    12    13   ar
    19    13    21    1
    20    21    22    1
    21    13    14   ar
    22    14    15   ar
    23    15    16   ar
    24    16    17   ar
    25    17    18    1
    26    18    19    1
    27    19    20    1
    28     6     7   ar
    29     7     8   ar
    30     8     9   ar
    31     9    37    1
    32    37    38    1
    33    37    39    1
    34    39    40    1
    35    39    41    1
    36    39    42    1
    37     9    10   ar
    38    10    11    2
    39    29    30   ar
    40    30    31   ar
    41    31    26   ar
    42    10     1   ar
    43     8     3   ar
    44    17    12   ar
    45    20    18    1
    46    23    24    1
