@<TRIPOS>MOLECULE
*****
 34 36 0 0 0
SMALL
GASTEIGER

@<TRIPOS>ATOM
      1 C         142.5912  141.8735  164.6547 C.2     1  UNL1        0.2491
      2 O         143.8017  141.8866  163.7690 O.2     1  UNL1       -0.2699
      3 N         141.2816  142.3960  164.1429 N.am    1  UNL1       -0.2777
      4 C         143.1587  141.7179  168.5795 C.ar    1  UNL1        0.1723
      5 C         143.0596  142.2534  167.1819 C.ar    1  UNL1        0.0446
      6 C         142.6903  141.3380  166.0524 C.ar    1  UNL1        0.0568
      7 C         142.4202  139.8871  166.3206 C.ar    1  UNL1        0.0078
      8 C         142.5193  139.3517  167.7182 C.ar    1  UNL1        0.0402
      9 C         142.8885  140.2671  168.8477 C.ar    1  UNL1        0.1724
     10 O         142.9876  139.7315  170.2454 O.3     1  UNL1       -0.4684
     11 C         142.9376  138.2519  170.4869 C.3     1  UNL1        0.2526
     12 O         143.5279  142.6333  169.7090 O.3     1  UNL1       -0.4723
     13 C         142.4549  143.2457  170.5596 C.3     1  UNL1        0.2082
     14 C         141.1372  143.6216  169.9493 C.3     1  UNL1        0.0794
     15 C         139.8858  142.9085  170.3684 C.3     1  UNL1        0.1461
     16 C         139.4478  140.3640  170.0796 C.3     1  UNL1        0.1741
     17 O         139.9631  141.5084  170.9010 O.3     1  UNL1       -0.3510
     18 C         140.0711  142.3829  165.0287 C.3     1  UNL1        0.0757
     19 C         139.2126  141.1554  165.1074 C.3     1  UNL1        0.0215
     20 C         139.7192  143.5973  165.8358 C.3     1  UNL1        0.0215
     21 C         141.1825  142.9315  162.7453 C.3     1  UNL1        0.0950
     22 C         139.9297  142.7196  161.9480 C.3     1  UNL1        0.0373
     23 C         138.7437  143.6371  161.9089 C.3     1  UNL1        0.0703
     24 N         137.7240  143.0375  160.9866 N.3     1  UNL1       -0.2974
     25 C         138.2797  141.7494  160.4556 C.3     1  UNL1        0.0690
     26 C         139.6430  141.5530  161.0498 C.3     1  UNL1        0.0231
     27 H         137.5363  143.6777  160.2150 H       1  UNL1        0.1232
     28 C         140.5587  140.3934  160.7912 C.3     1  UNL1        0.0278
     29 C         140.7460  139.3372  161.8396 C.ar    1  UNL1       -0.0221
     30 C         142.1240  139.0000  162.3268 C.ar    1  UNL1       -0.0043
     31 C         142.3113  137.9438  163.3753 C.ar    1  UNL1       -0.0003
     32 C         141.1206  137.2248  163.9367 C.ar    1  UNL1       -0.0000
     33 C         139.7425  137.5620  163.4496 C.ar    1  UNL1       -0.0003
     34 C         139.5552  138.6182  162.4011 C.ar    1  UNL1       -0.0043
@<TRIPOS>BOND
     1    16    17    1
     2    17    15    1
     3    15    14    1
     4    14    13    1
     5    13    12    1
     6    12     4    1
     7     4     5   ar
     8     5     6   ar
     9     6     1    1
    10     1     2    2
    11     1     3   am
    12     3    21    1
    13    22    21    1
    14    22    23    1
    15    23    24    1
    16    24    25    1
    17    25    26    1
    18    26    28    1
    19    28    29    1
    20    29    30   ar
    21    30    31   ar
    22    31    32   ar
    23    32    33   ar
    24    33    34   ar
    25     3    18    1
    26    18    19    1
    27    18    20    1
    28     6     7   ar
    29     7     8   ar
    30     8     9   ar
    31     9    10    1
    32    10    11    1
    33     9     4   ar
    34    26    22    1
    35    34    29   ar
    36    24    27    1
@<TRIPOS>MOLECULE
*****
 34 36 0 0 0
SMALL
GASTEIGER

@<TRIPOS>ATOM
      1 C         140.9386  142.7758  166.5748 C.2     1  UNL1        0.2491
      2 O         140.2542  142.8567  167.9071 O.2     1  UNL1       -0.2699
      3 N         142.4275  142.6082  166.5054 N.am    1  UNL1       -0.2777
      4 C         139.1753  144.2658  163.3466 C.ar    1  UNL1        0.1723
      5 C         139.9799  144.1790  164.6096 C.ar    1  UNL1        0.0446
      6 C         140.1339  142.8625  165.3118 C.ar    1  UNL1        0.0568
      7 C         139.4832  141.6328  164.7512 C.ar    1  UNL1        0.0078
      8 C         138.6786  141.7196  163.4882 C.ar    1  UNL1        0.0402
      9 C         138.5246  143.0361  162.7860 C.ar    1  UNL1        0.1724
     10 O         137.7200  143.1228  161.5230 O.3     1  UNL1       -0.4684
     11 C         138.2064  142.4461  160.2758 C.3     1  UNL1        0.2526
     12 O         139.0214  145.5823  162.6444 O.3     1  UNL1       -0.4723
     13 C         140.1372  146.1139  161.7945 C.3     1  UNL1        0.2082
     14 C         140.4981  145.4235  160.5127 C.3     1  UNL1        0.0794
     15 C         141.3705  144.2035  160.5379 C.3     1  UNL1        0.1461
     16 C         143.7112  143.1571  160.9573 C.3     1  UNL1        0.1741
     17 O         142.7219  144.2611  161.1862 O.3     1  UNL1       -0.3510
     18 C         143.1119  142.5273  165.1729 C.3     1  UNL1        0.0757
     19 C         143.1305  141.2320  164.4168 C.3     1  UNL1        0.0215
     20 C         143.7775  143.7417  164.5968 C.3     1  UNL1        0.0215
     21 C         143.2322  142.5214  167.7682 C.3     1  UNL1        0.0950
     22 C         142.9076  141.4763  168.7941 C.3     1  UNL1        0.0373
     23 C         142.9036  141.6719  170.2813 C.3     1  UNL1        0.0703
     24 N         142.5235  140.3686  170.9193 N.3     1  UNL1       -0.2974
     25 C         142.2926  139.3675  169.8263 C.3     1  UNL1        0.0690
     26 C         142.5299  140.0522  168.5130 C.3     1  UNL1        0.0231
     27 H         141.6708  140.4867  171.4664 H       1  UNL1        0.1232
     28 C         142.4106  139.4230  167.1565 C.3     1  UNL1        0.0278
     29 C         141.0619  139.0401  166.6234 C.ar    1  UNL1       -0.0221
     30 C         140.9526  138.2861  165.3313 C.ar    1  UNL1       -0.0043
     31 C         139.6039  137.9032  164.7981 C.ar    1  UNL1       -0.0003
     32 C         138.3644  138.2743  165.5570 C.ar    1  UNL1       -0.0000
     33 C         138.4736  139.0283  166.8491 C.ar    1  UNL1       -0.0003
     34 C         139.8224  139.4112  167.3823 C.ar    1  UNL1       -0.0043
@<TRIPOS>BOND
     1    16    17    1
     2    17    15    1
     3    15    14    1
     4    14    13    1
     5    13    12    1
     6    12     4    1
     7     4     5   ar
     8     5     6   ar
     9     6     1    1
    10     1     2    2
    11     1     3   am
    12     3    21    1
    13    22    21    1
    14    22    23    1
    15    23    24    1
    16    24    25    1
    17    25    26    1
    18    26    28    1
    19    28    29    1
    20    29    30   ar
    21    30    31   ar
    22    31    32   ar
    23    32    33   ar
    24    33    34   ar
    25     3    18    1
    26    18    19    1
    27    18    20    1
    28     6     7   ar
    29     7     8   ar
    30     8     9   ar
    31     9    10    1
    32    10    11    1
    33     9     4   ar
    34    26    22    1
    35    34    29   ar
    36    24    27    1
@<TRIPOS>MOLECULE
*****
 34 36 0 0 0
SMALL
GASTEIGER

@<TRIPOS>ATOM
      1 C         139.8653  142.4903  165.6907 C.2     1  UNL1        0.2491
      2 O         140.1386  143.0663  167.0485 O.2     1  UNL1       -0.2699
      3 N         139.4682  141.0504  165.5529 N.am    1  UNL1       -0.2777
      4 C         141.4396  144.3622  162.5654 C.ar    1  UNL1        0.1723
      5 C         141.3157  143.4984  163.7853 C.ar    1  UNL1        0.0446
      6 C         139.9892  143.3542  164.4707 C.ar    1  UNL1        0.0568
      7 C         138.7866  144.0739  163.9361 C.ar    1  UNL1        0.0078
      8 C         138.9106  144.9378  162.7162 C.ar    1  UNL1        0.0402
      9 C         140.2370  145.0819  162.0308 C.ar    1  UNL1        0.1724
     10 O         140.3609  145.9459  160.8108 O.3     1  UNL1       -0.4684
     11 C         140.3217  145.3257  159.4455 C.3     1  UNL1        0.2526
     12 O         142.7660  144.5064  161.8800 O.3     1  UNL1       -0.4723
     13 C         143.3355  143.3591  161.0994 C.3     1  UNL1        0.2082
     14 C         142.4196  142.3460  160.4790 C.3     1  UNL1        0.0794
     15 C         142.5822  140.8904  160.8027 C.3     1  UNL1        0.1461
     16 C         144.0397  138.7401  160.7605 C.3     1  UNL1        0.1741
     17 O         143.7639  140.1322  160.2748 O.3     1  UNL1       -0.3510
     18 C         139.1949  140.4745  164.1951 C.3     1  UNL1        0.0757
     19 C         137.8091  140.5267  163.6233 C.3     1  UNL1        0.0215
     20 C         140.3073  139.8463  163.4091 C.3     1  UNL1        0.0215
     21 C         139.3443  140.1865  166.7728 C.3     1  UNL1        0.0950
     22 C         140.4517  140.1533  167.7840 C.3     1  UNL1        0.0373
     23 C         140.3193  140.4570  169.2470 C.3     1  UNL1        0.0703
     24 N         141.6718  140.3020  169.8769 N.3     1  UNL1       -0.2974
     25 C         142.6401  139.9026  168.8032 C.3     1  UNL1        0.0690
     26 C         141.8861  139.8107  167.5097 C.3     1  UNL1        0.0231
     27 H         141.6374  139.5811  170.5976 H       1  UNL1        0.1232
     28 C         142.4648  139.4411  166.1761 C.3     1  UNL1        0.0278
     29 C         143.4010  140.3823  165.4779 C.ar    1  UNL1       -0.0221
     30 C         143.4795  141.8176  165.9066 C.ar    1  UNL1       -0.0043
     31 C         144.4158  142.7588  165.2083 C.ar    1  UNL1       -0.0003
     32 C         145.2736  142.2648  164.0814 C.ar    1  UNL1       -0.0000
     33 C         145.1952  140.8294  163.6527 C.ar    1  UNL1       -0.0003
     34 C         144.2589  139.8883  164.3509 C.ar    1  UNL1       -0.0043
@<TRIPOS>BOND
     1    16    17    1
     2    17    15    1
     3    15    14    1
     4    14    13    1
     5    13    12    1
     6    12     4    1
     7     4     5   ar
     8     5     6   ar
     9     6     1    1
    10     1     2    2
    11     1     3   am
    12     3    21    1
    13    22    21    1
    14    22    23    1
    15    23    24    1
    16    24    25    1
    17    25    26    1
    18    26    28    1
    19    28    29    1
    20    29    30   ar
    21    30    31   ar
    22    31    32   ar
    23    32    33   ar
    24    33    34   ar
    25     3    18    1
    26    18    19    1
    27    18    20    1
    28     6     7   ar
    29     7     8   ar
    30     8     9   ar
    31     9    10    1
    32    10    11    1
    33     9     4   ar
    34    26    22    1
    35    34    29   ar
    36    24    27    1
@<TRIPOS>MOLECULE
*****
 34 36 0 0 0
SMALL
GASTEIGER

@<TRIPOS>ATOM
      1 C         139.3588  139.7209  165.5976 C.2     1  UNL1        0.2491
      2 O         137.8995  139.9440  165.8628 O.2     1  UNL1       -0.2699
      3 N         139.7919  138.9549  164.3828 N.am    1  UNL1       -0.2777
      4 C         142.3770  141.8585  167.0368 C.ar    1  UNL1        0.1723
      5 C         141.3506  141.3156  166.0872 C.ar    1  UNL1        0.0446
      6 C         140.3853  140.2638  166.5473 C.ar    1  UNL1        0.0568
      7 C         140.4463  139.7548  167.9569 C.ar    1  UNL1        0.0078
      8 C         141.4727  140.2976  168.9065 C.ar    1  UNL1        0.0402
      9 C         142.4381  141.3495  168.4464 C.ar    1  UNL1        0.1724
     10 O         143.4645  141.8924  169.3961 O.3     1  UNL1       -0.4684
     11 C         143.0825  142.9496  170.3892 C.3     1  UNL1        0.2526
     12 O         143.3424  142.9104  166.5767 O.3     1  UNL1       -0.4723
     13 C         143.6298  143.0763  165.1139 C.3     1  UNL1        0.2082
     14 C         144.1265  144.3918  164.5917 C.3     1  UNL1        0.0794
     15 C         143.8313  144.7972  163.1779 C.3     1  UNL1        0.1461
     16 C         143.4928  143.1908  161.1643 C.3     1  UNL1        0.1741
     17 O         144.3998  144.0069  162.0368 O.3     1  UNL1       -0.3510
     18 C         141.2514  138.7318  164.1177 C.3     1  UNL1        0.0757
     19 C         141.9714  139.5875  163.1180 C.3     1  UNL1        0.0215
     20 C         141.9907  137.6530  164.8522 C.3     1  UNL1        0.0215
     21 C         138.7655  138.4121  163.4332 C.3     1  UNL1        0.0950
     22 C         138.6118  139.0166  162.0690 C.3     1  UNL1        0.0373
     23 C         139.0621  138.4026  160.7766 C.3     1  UNL1        0.0703
     24 N         138.7094  139.3478  159.6666 N.3     1  UNL1       -0.2974
     25 C         138.0412  140.5461  160.2730 C.3     1  UNL1        0.0690
     26 C         137.9809  140.3414  161.7577 C.3     1  UNL1        0.0231
     27 H         138.0741  138.8914  159.0121 H       1  UNL1        0.1232
     28 C         137.3929  141.2942  162.7559 C.3     1  UNL1        0.0278
     29 C         138.2384  142.3887  163.3364 C.ar    1  UNL1       -0.0221
     30 C         139.6235  142.6249  162.8115 C.ar    1  UNL1       -0.0043
     31 C         140.4690  143.7195  163.3920 C.ar    1  UNL1       -0.0003
     32 C         139.9295  144.5778  164.4975 C.ar    1  UNL1       -0.0000
     33 C         138.5443  144.3416  165.0225 C.ar    1  UNL1       -0.0003
     34 C         137.6988  143.2470  164.4420 C.ar    1  UNL1       -0.0043
@<TRIPOS>BOND
     1    16    17    1
     2    17    15    1
     3    15    14    1
     4    14    13    1
     5    13    12    1
     6    12     4    1
     7     4     5   ar
     8     5     6   ar
     9     6     1    1
    10     1     2    2
    11     1     3   am
    12     3    21    1
    13    22    21    1
    14    22    23    1
    15    23    24    1
    16    24    25    1
    17    25    26    1
    18    26    28    1
    19    28    29    1
    20    29    30   ar
    21    30    31   ar
    22    31    32   ar
    23    32    33   ar
    24    33    34   ar
    25     3    18    1
    26    18    19    1
    27    18    20    1
    28     6     7   ar
    29     7     8   ar
    30     8     9   ar
    31     9    10    1
    32    10    11    1
    33     9     4   ar
    34    26    22    1
    35    34    29   ar
    36    24    27    1
@<TRIPOS>MOLECULE
*****
 34 36 0 0 0
SMALL
GASTEIGER

@<TRIPOS>ATOM
      1 C         140.5560  140.8679  163.3217 C.2     1  UNL1        0.2491
      2 O         141.1030  139.5104  162.9932 O.2     1  UNL1       -0.2699
      3 N         139.7804  141.0776  164.5883 N.am    1  UNL1       -0.2777
      4 C         140.0587  143.4093  160.3144 C.ar    1  UNL1        0.1723
      5 C         139.8302  142.2615  161.2526 C.ar    1  UNL1        0.0446
      6 C         140.7845  142.0157  162.3834 C.ar    1  UNL1        0.0568
      7 C         141.9674  142.9177  162.5760 C.ar    1  UNL1        0.0078
      8 C         142.1959  144.0655  161.6378 C.ar    1  UNL1        0.0402
      9 C         141.2416  144.3113  160.5070 C.ar    1  UNL1        0.1724
     10 O         141.4701  145.4592  159.5687 O.3     1  UNL1       -0.4684
     11 C         141.9780  145.2035  158.1807 C.3     1  UNL1        0.2526
     12 O         139.1043  143.6551  159.1835 O.3     1  UNL1       -0.4723
     13 C         138.9281  142.6198  158.1125 C.3     1  UNL1        0.2082
     14 C         137.5931  142.4445  157.4513 C.3     1  UNL1        0.0794
     15 C         137.2735  141.1665  156.7339 C.3     1  UNL1        0.1461
     16 C         134.8324  140.5427  156.1002 C.3     1  UNL1        0.1741
     17 O         135.9994  140.4350  157.0364 O.3     1  UNL1       -0.3510
     18 C         139.2333  142.4352  164.9168 C.3     1  UNL1        0.0757
     19 C         140.0453  143.3924  165.7380 C.3     1  UNL1        0.0215
     20 C         137.8743  142.8355  164.4239 C.3     1  UNL1        0.0215
     21 C         139.5518  139.9298  165.5266 C.3     1  UNL1        0.0950
     22 C         140.2505  139.8952  166.8535 C.3     1  UNL1        0.0373
     23 C         139.6155  140.1363  168.1909 C.3     1  UNL1        0.0703
     24 N         140.6794  140.0035  169.2399 N.3     1  UNL1       -0.2974
     25 C         141.9719  139.6802  168.5509 C.3     1  UNL1        0.0690
     26 C         141.7068  139.6133  167.0760 C.3     1  UNL1        0.0231
     27 H         140.4354  139.2541  169.8874 H       1  UNL1        0.1232
     28 C         142.7203  139.3165  166.0107 C.3     1  UNL1        0.0278
     29 C         143.5512  140.4252  165.4362 C.ar    1  UNL1       -0.0221
     30 C         143.3620  141.8324  165.9200 C.ar    1  UNL1       -0.0043
     31 C         144.1930  142.9411  165.3454 C.ar    1  UNL1       -0.0003
     32 C         145.2133  142.6428  164.2872 C.ar    1  UNL1       -0.0000
     33 C         145.4026  141.2356  163.8034 C.ar    1  UNL1       -0.0003
     34 C         144.5716  140.1268  164.3779 C.ar    1  UNL1       -0.0043
@<TRIPOS>BOND
     1    16    17    1
     2    17    15    1
     3    15    14    1
     4    14    13    1
     5    13    12    1
     6    12     4    1
     7     4     5   ar
     8     5     6   ar
     9     6     1    1
    10     1     2    2
    11     1     3   am
    12     3    21    1
    13    22    21    1
    14    22    23    1
    15    23    24    1
    16    24    25    1
    17    25    26    1
    18    26    28    1
    19    28    29    1
    20    29    30   ar
    21    30    31   ar
    22    31    32   ar
    23    32    33   ar
    24    33    34   ar
    25     3    18    1
    26    18    19    1
    27    18    20    1
    28     6     7   ar
    29     7     8   ar
    30     8     9   ar
    31     9    10    1
    32    10    11    1
    33     9     4   ar
    34    26    22    1
    35    34    29   ar
    36    24    27    1
@<TRIPOS>MOLECULE
*****
 34 36 0 0 0
SMALL
GASTEIGER

@<TRIPOS>ATOM
      1 C         138.0475  140.5367  163.3380 C.2     1  UNL1        0.2491
      2 O         136.8167  141.3388  163.0355 O.2     1  UNL1       -0.2699
      3 N         138.7577  139.8083  162.2357 N.am    1  UNL1       -0.2777
      4 C         140.0720  141.4106  166.6376 C.ar    1  UNL1        0.1723
      5 C         139.5513  141.4844  165.2329 C.ar    1  UNL1        0.0446
      6 C         138.5682  140.4629  164.7428 C.ar    1  UNL1        0.0568
      7 C         138.1058  139.3677  165.6575 C.ar    1  UNL1        0.0078
      8 C         138.6265  139.2940  167.0623 C.ar    1  UNL1        0.0402
      9 C         139.6097  140.3154  167.5523 C.ar    1  UNL1        0.1724
     10 O         140.1304  140.2417  168.9571 O.3     1  UNL1       -0.4684
     11 C         139.4701  141.0366  170.0444 C.3     1  UNL1        0.2526
     12 O         141.0551  142.4321  167.1276 O.3     1  UNL1       -0.4723
     13 C         142.5232  142.1243  167.1197 C.3     1  UNL1        0.2082
     14 C         143.2458  141.9496  165.8169 C.3     1  UNL1        0.0794
     15 C         144.2562  142.9675  165.3774 C.3     1  UNL1        0.1461
     16 C         145.6904  141.4828  163.7998 C.3     1  UNL1        0.1741
     17 O         144.9956  142.7810  164.0856 O.3     1  UNL1       -0.3510
     18 C         139.9886  139.0061  162.5382 C.3     1  UNL1        0.0757
     19 C         141.3417  139.6476  162.4526 C.3     1  UNL1        0.0215
     20 C         139.8662  137.5623  162.9264 C.3     1  UNL1        0.0215
     21 C         138.2370  139.8820  160.8309 C.3     1  UNL1        0.0950
     22 C         139.0179  140.6125  159.7790 C.3     1  UNL1        0.0373
     23 C         139.7832  139.9831  158.6528 C.3     1  UNL1        0.0703
     24 N         140.4090  141.0822  157.8463 N.3     1  UNL1       -0.2974
     25 C         140.0304  142.3909  158.4740 C.3     1  UNL1        0.0690
     26 C         139.1707  142.1005  159.6685 C.3     1  UNL1        0.0231
     27 H         140.0651  141.0462  156.8867 H       1  UNL1        0.1232
     28 C         138.5694  143.1195  160.5905 C.3     1  UNL1        0.0278
     29 C         139.3519  143.6196  161.7683 C.ar    1  UNL1       -0.0221
     30 C         140.8214  143.3356  161.8678 C.ar    1  UNL1       -0.0043
     31 C         141.6039  143.8358  163.0457 C.ar    1  UNL1       -0.0003
     32 C         140.9170  144.6201  164.1242 C.ar    1  UNL1       -0.0000
     33 C         139.4475  144.9041  164.0248 C.ar    1  UNL1       -0.0003
     34 C         138.6650  144.4039  162.8469 C.ar    1  UNL1       -0.0043
@<TRIPOS>BOND
     1    16    17    1
     2    17    15    1
     3    15    14    1
     4    14    13    1
     5    13    12    1
     6    12     4    1
     7     4     5   ar
     8     5     6   ar
     9     6     1    1
    10     1     2    2
    11     1     3   am
    12     3    21    1
    13    22    21    1
    14    22    23    1
    15    23    24    1
    16    24    25    1
    17    25    26    1
    18    26    28    1
    19    28    29    1
    20    29    30   ar
    21    30    31   ar
    22    31    32   ar
    23    32    33   ar
    24    33    34   ar
    25     3    18    1
    26    18    19    1
    27    18    20    1
    28     6     7   ar
    29     7     8   ar
    30     8     9   ar
    31     9    10    1
    32    10    11    1
    33     9     4   ar
    34    26    22    1
    35    34    29   ar
    36    24    27    1
@<TRIPOS>MOLECULE
*****
 34 36 0 0 0
SMALL
GASTEIGER

@<TRIPOS>ATOM
      1 C         139.2445  140.0889  165.8524 C.2     1  UNL1        0.2491
      2 O         138.7858  138.7087  166.2195 O.2     1  UNL1       -0.2699
      3 N         138.7689  140.7233  164.5791 N.am    1  UNL1       -0.2777
      4 C         142.3907  142.1480  167.1217 C.ar    1  UNL1        0.1723
      5 C         141.4565  141.4023  166.2155 C.ar    1  UNL1        0.0446
      6 C         140.1787  140.8346  166.7586 C.ar    1  UNL1        0.0568
      7 C         139.8351  141.0126  168.2078 C.ar    1  UNL1        0.0078
      8 C         140.7693  141.7583  169.1139 C.ar    1  UNL1        0.0402
      9 C         142.0471  142.3260  168.5709 C.ar    1  UNL1        0.1724
     10 O         142.9814  143.0718  169.4771 O.3     1  UNL1       -0.4684
     11 C         144.2145  142.3979  170.0017 C.3     1  UNL1        0.2526
     12 O         143.6685  142.7158  166.5786 O.3     1  UNL1       -0.4723
     13 C         143.8819  142.7989  165.0962 C.3     1  UNL1        0.2082
     14 C         143.7033  144.1075  164.3850 C.3     1  UNL1        0.0794
     15 C         144.1837  144.2651  162.9727 C.3     1  UNL1        0.1461
     16 C         143.0736  143.3088  160.8272 C.3     1  UNL1        0.1741
     17 O         143.1932  144.3959  161.8538 O.3     1  UNL1       -0.3510
     18 C         139.2276  142.1036  164.2120 C.3     1  UNL1        0.0757
     19 C         140.3769  142.2850  163.2654 C.3     1  UNL1        0.0215
     20 C         138.5369  143.3023  164.7916 C.3     1  UNL1        0.0215
     21 C         137.8347  139.9777  163.6729 C.3     1  UNL1        0.0950
     22 C         138.2932  139.5510  162.3099 C.3     1  UNL1        0.0373
     23 C         137.8207  140.1169  161.0035 C.3     1  UNL1        0.0703
     24 N         138.5401  139.3992  159.9002 N.3     1  UNL1       -0.2974
     25 C         139.4572  138.3898  160.5246 C.3     1  UNL1        0.0690
     26 C         139.3046  138.4836  162.0139 C.3     1  UNL1        0.0231
     27 H         139.0820  140.0653  159.3496 H       1  UNL1        0.1232
     28 C         140.0351  137.6554  163.0290 C.3     1  UNL1        0.0278
     29 C         141.3341  138.1420  163.5995 C.ar    1  UNL1       -0.0221
     30 C         141.7626  137.7046  164.9688 C.ar    1  UNL1       -0.0043
     31 C         143.0617  138.1913  165.5394 C.ar    1  UNL1       -0.0003
     32 C         143.9323  139.1154  164.7407 C.ar    1  UNL1       -0.0000
     33 C         143.5038  139.5530  163.3713 C.ar    1  UNL1       -0.0003
     34 C         142.2048  139.0662  162.8008 C.ar    1  UNL1       -0.0043
@<TRIPOS>BOND
     1    16    17    1
     2    17    15    1
     3    15    14    1
     4    14    13    1
     5    13    12    1
     6    12     4    1
     7     4     5   ar
     8     5     6   ar
     9     6     1    1
    10     1     2    2
    11     1     3   am
    12     3    21    1
    13    22    21    1
    14    22    23    1
    15    23    24    1
    16    24    25    1
    17    25    26    1
    18    26    28    1
    19    28    29    1
    20    29    30   ar
    21    30    31   ar
    22    31    32   ar
    23    32    33   ar
    24    33    34   ar
    25     3    18    1
    26    18    19    1
    27    18    20    1
    28     6     7   ar
    29     7     8   ar
    30     8     9   ar
    31     9    10    1
    32    10    11    1
    33     9     4   ar
    34    26    22    1
    35    34    29   ar
    36    24    27    1
@<TRIPOS>MOLECULE
*****
 34 36 0 0 0
SMALL
GASTEIGER

@<TRIPOS>ATOM
      1 C         139.5378  139.8224  165.4427 C.2     1  UNL1        0.2491
      2 O         138.1881  139.6073  164.8248 O.2     1  UNL1       -0.2699
      3 N         140.7785  139.4793  164.6726 N.am    1  UNL1       -0.2777
      4 C         139.1008  140.2286  169.3662 C.ar    1  UNL1        0.1723
      5 C         138.9917  139.6705  167.9782 C.ar    1  UNL1        0.0446
      6 C         139.6470  140.3805  166.8308 C.ar    1  UNL1        0.0568
      7 C         140.4113  141.6485  167.0713 C.ar    1  UNL1        0.0078
      8 C         140.5204  142.2065  168.4593 C.ar    1  UNL1        0.0402
      9 C         139.8651  141.4966  169.6068 C.ar    1  UNL1        0.1724
     10 O         139.9743  142.0547  170.9949 O.3     1  UNL1       -0.4684
     11 C         141.3054  142.0931  171.6853 C.3     1  UNL1        0.2526
     12 O         138.4455  139.5187  170.5136 O.3     1  UNL1       -0.4723
     13 C         136.9666  139.6468  170.7288 C.3     1  UNL1        0.2082
     14 C         136.2120  138.5518  171.4227 C.3     1  UNL1        0.0794
     15 C         136.9431  137.3488  171.9408 C.3     1  UNL1        0.1461
     16 C         135.6541  136.1674  173.8624 C.3     1  UNL1        0.1741
     17 O         136.1744  136.1681  172.4555 O.3     1  UNL1       -0.3510
     18 C         142.1283  139.6944  165.2906 C.3     1  UNL1        0.0757
     19 C         142.9253  140.9172  164.9448 C.3     1  UNL1        0.0215
     20 C         142.6811  138.6867  166.2544 C.3     1  UNL1        0.0215
     21 C         140.6695  138.9213  163.2846 C.3     1  UNL1        0.0950
     22 C         141.1159  139.7401  162.1098 C.3     1  UNL1        0.0373
     23 C         142.3699  139.5299  161.3140 C.3     1  UNL1        0.0703
     24 N         142.4157  140.5728  160.2368 N.3     1  UNL1       -0.2974
     25 C         141.1900  141.4276  160.3669 C.3     1  UNL1        0.0690
     26 C         140.3867  140.9129  161.5244 C.3     1  UNL1        0.0231
     27 H         142.4292  140.1241  159.3209 H       1  UNL1        0.1232
     28 C         139.0830  141.4729  162.0111 C.3     1  UNL1        0.0278
     29 C         139.0725  142.5544  163.0503 C.ar    1  UNL1       -0.0221
     30 C         140.3622  143.1729  163.5023 C.ar    1  UNL1       -0.0043
     31 C         140.3516  144.2544  164.5416 C.ar    1  UNL1       -0.0003
     32 C         139.0514  144.7176  165.1289 C.ar    1  UNL1       -0.0000
     33 C         137.7617  144.0992  164.6770 C.ar    1  UNL1       -0.0003
     34 C         137.7723  143.0176  163.6377 C.ar    1  UNL1       -0.0043
@<TRIPOS>BOND
     1    16    17    1
     2    17    15    1
     3    15    14    1
     4    14    13    1
     5    13    12    1
     6    12     4    1
     7     4     5   ar
     8     5     6   ar
     9     6     1    1
    10     1     2    2
    11     1     3   am
    12     3    21    1
    13    22    21    1
    14    22    23    1
    15    23    24    1
    16    24    25    1
    17    25    26    1
    18    26    28    1
    19    28    29    1
    20    29    30   ar
    21    30    31   ar
    22    31    32   ar
    23    32    33   ar
    24    33    34   ar
    25     3    18    1
    26    18    19    1
    27    18    20    1
    28     6     7   ar
    29     7     8   ar
    30     8     9   ar
    31     9    10    1
    32    10    11    1
    33     9     4   ar
    34    26    22    1
    35    34    29   ar
    36    24    27    1
@<TRIPOS>MOLECULE
*****
 34 36 0 0 0
SMALL
GASTEIGER

@<TRIPOS>ATOM
      1 C         140.0656  139.6992  164.2164 C.2     1  UNL1        0.2491
      2 O         140.4066  138.2470  164.3738 O.2     1  UNL1       -0.2699
      3 N         139.4839  140.4622  165.3694 N.am    1  UNL1       -0.2777
      4 C         141.8091  141.8597  161.3805 C.ar    1  UNL1        0.1723
      5 C         141.5683  141.1705  162.6908 C.ar    1  UNL1        0.0446
      6 C         140.3065  140.3884  162.9061 C.ar    1  UNL1        0.0568
      7 C         139.2856  140.2957  161.8111 C.ar    1  UNL1        0.0078
      8 C         139.5264  140.9849  160.5008 C.ar    1  UNL1        0.0402
      9 C         140.7882  141.7670  160.2855 C.ar    1  UNL1        0.1724
     10 O         141.0290  142.4562  158.9752 O.3     1  UNL1       -0.4684
     11 C         140.5169  143.8488  158.7550 C.3     1  UNL1        0.2526
     12 O         143.0709  142.6417  161.1652 O.3     1  UNL1       -0.4723
     13 C         143.1015  144.1122  161.4599 C.3     1  UNL1        0.2082
     14 C         142.8844  144.6009  162.8614 C.3     1  UNL1        0.0794
     15 C         141.6065  145.2982  163.2230 C.3     1  UNL1        0.1461
     16 C         139.6693  146.2178  161.7561 C.3     1  UNL1        0.1741
     17 O         140.3678  145.0628  162.4105 O.3     1  UNL1       -0.3510
     18 C         139.1429  141.9145  165.2120 C.3     1  UNL1        0.0757
     19 C         137.8457  142.3155  164.5746 C.3     1  UNL1        0.0215
     20 C         140.0993  142.9657  165.6920 C.3     1  UNL1        0.0215
     21 C         139.2430  139.7730  166.6797 C.3     1  UNL1        0.0950
     22 C         140.1188  140.0767  167.8590 C.3     1  UNL1        0.0373
     23 C         139.6808  140.7248  169.1389 C.3     1  UNL1        0.0703
     24 N         140.8777  140.8343  170.0364 N.3     1  UNL1       -0.2974
     25 C         142.0555  140.2538  169.3112 C.3     1  UNL1        0.0690
     26 C         141.5865  139.7856  167.9655 C.3     1  UNL1        0.0231
     27 H         140.7122  140.3155  170.8989 H       1  UNL1        0.1232
     28 C         142.4360  139.1397  166.9114 C.3     1  UNL1        0.0278
     29 C         143.2675  139.9873  165.9949 C.ar    1  UNL1       -0.0221
     30 C         143.2347  141.4817  166.1196 C.ar    1  UNL1       -0.0043
     31 C         144.0663  142.3293  165.2030 C.ar    1  UNL1       -0.0003
     32 C         144.9306  141.6824  164.1617 C.ar    1  UNL1       -0.0000
     33 C         144.9635  140.1880  164.0369 C.ar    1  UNL1       -0.0003
     34 C         144.1319  139.3404  164.9535 C.ar    1  UNL1       -0.0043
@<TRIPOS>BOND
     1    16    17    1
     2    17    15    1
     3    15    14    1
     4    14    13    1
     5    13    12    1
     6    12     4    1
     7     4     5   ar
     8     5     6   ar
     9     6     1    1
    10     1     2    2
    11     1     3   am
    12     3    21    1
    13    22    21    1
    14    22    23    1
    15    23    24    1
    16    24    25    1
    17    25    26    1
    18    26    28    1
    19    28    29    1
    20    29    30   ar
    21    30    31   ar
    22    31    32   ar
    23    32    33   ar
    24    33    34   ar
    25     3    18    1
    26    18    19    1
    27    18    20    1
    28     6     7   ar
    29     7     8   ar
    30     8     9   ar
    31     9    10    1
    32    10    11    1
    33     9     4   ar
    34    26    22    1
    35    34    29   ar
    36    24    27    1
