@<TRIPOS>MOLECULE
*****
 55 63 0 0 0
SMALL
GASTEIGER

@<TRIPOS>ATOM
      1 C         140.6924  141.6856  157.4096 C.2     1  UNL1        0.1542
      2 N         141.7354  140.8678  156.7072 N.2     1  UNL1       -0.0655
      3 C         141.4858  140.3698  155.3144 C.cat   1  UNL1        0.4642
      4 N         140.1931  140.6897  154.6240 N.2     1  UNL1        0.0296
      5 C         139.1501  141.5075  155.3264 C.2     1  UNL1        0.3685
      6 N         137.7904  141.9784  154.9025 N.2     1  UNL1       -0.0340
      7 C         137.1998  142.7673  156.0333 C.2     1  UNL1        0.2321
      8 C         138.1943  142.7841  157.1561 C.2     1  UNL1        0.0439
      9 C         139.3997  142.0055  156.7192 C.3     1  UNL1        0.1946
     10 N         141.6457  143.1205  163.6253 N.am    1  UNL1       -0.2526
     11 C         141.8716  144.5035  163.0904 C.3     1  UNL1        0.1229
     12 C         141.7684  144.7639  161.6167 C.3     1  UNL1        0.1280
     13 N         141.4392  143.6412  160.6781 N.ar    1  UNL1       -0.3206
     14 C         141.2716  143.5951  159.1882 C.ar    1  UNL1        0.0787
     15 C         140.9421  142.1835  158.8023 C.ar    1  UNL1        0.0498
     16 C         140.9060  141.3572  160.0537 C.ar    1  UNL1        0.0259
     17 C         141.2133  142.2581  161.2130 C.ar    1  UNL1        0.1147
     18 C         141.3165  141.9978  162.6866 C.2     1  UNL1        0.2687
     19 O         141.0906  140.6148  163.2216 O.2     1  UNL1       -0.2680
     20 C         140.5203  142.9124  165.9577 C.ar    1  UNL1       -0.0088
     21 C         140.6235  142.6520  167.4314 C.ar    1  UNL1       -0.0031
     22 C         141.9555  142.3394  168.0462 C.ar    1  UNL1       -0.0006
     23 C         143.1842  142.2871  167.1873 C.ar    1  UNL1       -0.0031
     24 C         143.0809  142.5475  165.7137 C.ar    1  UNL1       -0.0088
     25 C         141.7489  142.8601  165.0990 C.ar    1  UNL1        0.0462
     26 C         138.7557  144.6516  165.1755 C.3     1  UNL1        0.0051
     27 C         139.1883  143.2251  165.3429 C.3     1  UNL1        0.0276
     28 C         144.3097  142.4952  164.8550 C.3     1  UNL1        0.0276
     29 C         144.7776  141.1851  164.2941 C.3     1  UNL1        0.0051
     30 N         142.5289  139.5520  154.6122 N.pl3   1  UNL1       -0.1896
     31 H         143.1843  139.9909  154.0231 H       1  UNL1        0.2524
     32 C         142.5733  138.0655  154.8075 C.ar    1  UNL1        0.1435
     33 C         142.0546  137.1524  153.7364 C.ar    1  UNL1        0.0356
     34 C         142.0990  135.6659  153.9317 C.ar    1  UNL1        0.0174
     35 C         142.6622  135.0923  155.1983 C.ar    1  UNL1        0.0511
     36 C         143.1809  136.0053  156.2694 C.ar    1  UNL1        0.0541
     37 C         143.1364  137.4919  156.0740 C.ar    1  UNL1        0.1684
     38 N         142.7066  133.6057  155.3936 N.pl3   1  UNL1       -0.3074
     39 C         141.4907  132.7751  155.1079 C.3     1  UNL1        0.0913
     40 C         141.5352  131.2885  155.3032 C.3     1  UNL1        0.0305
     41 C         142.7955  130.6327  155.7843 C.3     1  UNL1        0.0801
     42 C         144.0113  131.4634  156.0700 C.3     1  UNL1        0.0305
     43 C         143.9669  132.9499  155.8747 C.3     1  UNL1        0.0913
     44 C         142.8400  129.1461  155.9797 C.2     1  UNL1        0.2253
     45 O         142.4126  128.2307  154.8709 O.2     1  UNL1       -0.2749
     46 N         143.3119  128.5749  157.2839 N.am    1  UNL1       -0.2793
     47 C         143.8020  129.1516  158.5791 C.3     1  UNL1        0.0976
     48 C         143.9794  127.7671  159.1285 C.3     1  UNL1        0.0660
     49 C         144.4694  128.3438  160.4235 C.3     1  UNL1        0.0767
     50 N         144.6468  126.9594  160.9729 N.3     1  UNL1       -0.2712
     51 C         145.1187  126.3881  162.2771 C.3     1  UNL1        0.0896
     52 C         144.1568  126.3827  159.6778 C.3     1  UNL1        0.0767
     53 C         143.4894  127.1904  157.8333 C.3     1  UNL1        0.0976
     54 O         143.6551  138.4050  157.1451 O.3     1  UNL1       -0.4687
     55 C         142.9559  138.4801  158.4701 C.3     1  UNL1        0.2526
@<TRIPOS>BOND
     1    26    27    1
     2    27    20    1
     3    20    21   ar
     4    21    22   ar
     5    22    23   ar
     6    23    24   ar
     7    24    28    1
     8    28    29    1
     9    24    25   ar
    10    25    10    1
    11    10    11    1
    12    11    12    1
    13    12    13    1
    14    13    14   ar
    15    14    15   ar
    16    15     1    1
    17     1     2    2
    18     2     3    1
    19     3    30    1
    20    30    32    1
    21    32    33   ar
    22    33    34   ar
    23    34    35   ar
    24    35    38    1
    25    38    39    1
    26    39    40    1
    27    40    41    1
    28    41    44    1
    29    44    45    2
    30    44    46   am
    31    46    47    1
    32    47    48    1
    33    48    49    1
    34    49    50    1
    35    50    51    1
    36    50    52    1
    37    48    53    1
    38    41    42    1
    39    42    43    1
    40    35    36   ar
    41    36    37   ar
    42    37    54    1
    43    54    55    1
    44     3     4    2
    45     4     5    1
    46     5     6    2
    47     6     7    1
    48     7     8    2
    49     8     9    1
    50    15    16   ar
    51    16    17   ar
    52    17    18    1
    53    18    19    2
    54    25    20   ar
    55    18    10   am
    56    17    13   ar
    57     9     1    1
    58    37    32   ar
    59     9     5    1
    60    43    38    1
    61    53    46    1
    62    52    48    1
    63    30    31    1
@<TRIPOS>MOLECULE
*****
 55 63 0 0 0
SMALL
GASTEIGER

@<TRIPOS>ATOM
      1 C         141.5515  144.4270  157.4236 C.2     1  UNL1        0.1542
      2 N         142.4453  143.4722  156.6890 N.2     1  UNL1       -0.0655
      3 C         142.5553  143.5463  155.1949 C.cat   1  UNL1        0.4642
      4 N         141.7715  144.5752  154.4353 N.2     1  UNL1        0.0296
      5 C         140.8778  145.5300  155.1698 C.2     1  UNL1        0.3685
      6 N         139.9905  146.6422  154.6943 N.2     1  UNL1       -0.0340
      7 C         139.3322  147.2553  155.8946 C.2     1  UNL1        0.2321
      8 C         139.8125  146.5222  157.1119 C.2     1  UNL1        0.0439
      9 C         140.7677  145.4559  156.6640 C.3     1  UNL1        0.1946
     10 N         141.3028  143.3938  163.7855 N.am    1  UNL1       -0.2526
     11 C         140.8607  144.8265  163.8240 C.3     1  UNL1        0.1229
     12 C         140.7348  145.6072  162.5494 C.3     1  UNL1        0.1280
     13 N         141.0512  144.9550  161.2362 N.ar    1  UNL1       -0.3206
     14 C         141.0191  145.4684  159.8271 C.ar    1  UNL1        0.0787
     15 C         141.4415  144.3528  158.9177 C.ar    1  UNL1        0.0498
     16 C         141.7346  143.1500  159.7647 C.ar    1  UNL1        0.0259
     17 C         141.4933  143.5222  161.1976 C.ar    1  UNL1        0.1147
     18 C         141.6192  142.7416  162.4722 C.2     1  UNL1        0.2687
     19 O         142.0613  141.3087  162.4337 O.2     1  UNL1       -0.2680
     20 C         142.7478  142.5450  165.7709 C.ar    1  UNL1       -0.0088
     21 C         142.8736  141.7643  167.0456 C.ar    1  UNL1       -0.0031
     22 C         141.6802  141.0516  167.6094 C.ar    1  UNL1       -0.0006
     23 C         140.3611  141.1196  166.8985 C.ar    1  UNL1       -0.0031
     24 C         140.2353  141.9003  165.6239 C.ar    1  UNL1       -0.0088
     25 C         141.4287  142.6130  165.0601 C.ar    1  UNL1        0.0462
     26 C         144.9107  142.5205  164.3316 C.3     1  UNL1        0.0051
     27 C         143.9411  143.2578  165.2071 C.3     1  UNL1        0.0276
     28 C         138.9161  141.9682  164.9132 C.3     1  UNL1        0.0276
     29 C         138.1636  140.7075  164.6064 C.3     1  UNL1        0.0051
     30 N         143.4492  142.5915  154.4604 N.pl3   1  UNL1       -0.1896
     31 H         144.2032  142.9337  153.9279 H       1  UNL1        0.2524
     32 C         143.1940  141.1154  154.5373 C.ar    1  UNL1        0.1435
     33 C         142.0122  140.5207  153.8306 C.ar    1  UNL1        0.0356
     34 C         141.7571  139.0445  153.9075 C.ar    1  UNL1        0.0174
     35 C         142.6838  138.1630  154.6913 C.ar    1  UNL1        0.0511
     36 C         143.8657  138.7577  155.3980 C.ar    1  UNL1        0.0541
     37 C         144.1207  140.2339  155.3211 C.ar    1  UNL1        0.1684
     38 N         142.4287  136.6869  154.7682 N.pl3   1  UNL1       -0.3074
     39 C         142.4580  135.9889  156.0955 C.3     1  UNL1        0.0913
     40 C         142.2029  134.5127  156.1725 C.3     1  UNL1        0.0305
     41 C         141.9185  133.7347  154.9220 C.3     1  UNL1        0.0801
     42 C         141.8891  134.4327  153.5946 C.3     1  UNL1        0.0305
     43 C         142.1443  135.9089  153.5177 C.3     1  UNL1        0.0913
     44 C         141.6633  132.2585  154.9988 C.2     1  UNL1        0.2253
     45 O         140.5795  131.6403  154.1662 O.2     1  UNL1       -0.2749
     46 N         142.4920  131.4006  155.9083 N.am    1  UNL1       -0.2793
     47 C         143.6247  131.6489  156.8600 C.3     1  UNL1        0.0976
     48 C         143.6640  130.1872  157.1946 C.3     1  UNL1        0.0660
     49 C         144.7966  130.4355  158.1462 C.3     1  UNL1        0.0767
     50 N         144.8360  128.9739  158.4807 N.3     1  UNL1       -0.2712
     51 C         145.6647  128.1159  159.3902 C.3     1  UNL1        0.0896
     52 C         143.7034  128.7256  157.5291 C.3     1  UNL1        0.0767
     53 C         142.5314  129.9388  156.2429 C.3     1  UNL1        0.0976
     54 O         145.3026  140.8286  156.0279 O.3     1  UNL1       -0.4687
     55 C         145.1602  141.3333  157.4333 C.3     1  UNL1        0.2526
@<TRIPOS>BOND
     1    26    27    1
     2    27    20    1
     3    20    21   ar
     4    21    22   ar
     5    22    23   ar
     6    23    24   ar
     7    24    28    1
     8    28    29    1
     9    24    25   ar
    10    25    10    1
    11    10    11    1
    12    11    12    1
    13    12    13    1
    14    13    14   ar
    15    14    15   ar
    16    15     1    1
    17     1     2    2
    18     2     3    1
    19     3    30    1
    20    30    32    1
    21    32    33   ar
    22    33    34   ar
    23    34    35   ar
    24    35    38    1
    25    38    39    1
    26    39    40    1
    27    40    41    1
    28    41    44    1
    29    44    45    2
    30    44    46   am
    31    46    47    1
    32    47    48    1
    33    48    49    1
    34    49    50    1
    35    50    51    1
    36    50    52    1
    37    48    53    1
    38    41    42    1
    39    42    43    1
    40    35    36   ar
    41    36    37   ar
    42    37    54    1
    43    54    55    1
    44     3     4    2
    45     4     5    1
    46     5     6    2
    47     6     7    1
    48     7     8    2
    49     8     9    1
    50    15    16   ar
    51    16    17   ar
    52    17    18    1
    53    18    19    2
    54    25    20   ar
    55    18    10   am
    56    17    13   ar
    57     9     1    1
    58    37    32   ar
    59     9     5    1
    60    43    38    1
    61    53    46    1
    62    52    48    1
    63    30    31    1
@<TRIPOS>MOLECULE
*****
 55 63 0 0 0
SMALL
GASTEIGER

@<TRIPOS>ATOM
      1 C         141.4234  144.4662  157.3711 C.2     1  UNL1        0.1542
      2 N         142.3272  143.5165  156.6425 N.2     1  UNL1       -0.0655
      3 C         142.4547  143.5981  155.1501 C.cat   1  UNL1        0.4642
      4 N         141.6783  144.6295  154.3864 N.2     1  UNL1        0.0296
      5 C         140.7744  145.5793  155.1150 C.2     1  UNL1        0.3685
      6 N         139.8910  146.6924  154.6346 N.2     1  UNL1       -0.0340
      7 C         139.2177  147.2987  155.8301 C.2     1  UNL1        0.2321
      8 C         139.6848  146.5603  157.0493 C.2     1  UNL1        0.0439
      9 C         140.6469  145.4977  156.6074 C.3     1  UNL1        0.1946
     10 N         141.0449  143.3863  163.7188 N.am    1  UNL1       -0.2526
     11 C         140.7134  144.8482  163.7706 C.3     1  UNL1        0.1229
     12 C         140.6580  145.6500  162.5040 C.3     1  UNL1        0.1280
     13 N         140.9341  144.9898  161.1858 N.ar    1  UNL1       -0.3206
     14 C         140.9528  145.5193  159.7825 C.ar    1  UNL1        0.0787
     15 C         141.2959  144.3846  158.8635 C.ar    1  UNL1        0.0498
     16 C         141.4892  143.1537  159.6988 C.ar    1  UNL1        0.0259
     17 C         141.2656  143.5278  161.1341 C.ar    1  UNL1        0.1147
     18 C         141.3210  142.7260  162.4006 C.2     1  UNL1        0.2687
     19 O         141.6525  141.2640  162.3489 O.2     1  UNL1       -0.2680
     20 C         139.8557  141.9411  165.5209 C.ar    1  UNL1       -0.0088
     21 C         139.9111  141.1393  166.7874 C.ar    1  UNL1       -0.0031
     22 C         141.2113  140.9809  167.5184 C.ar    1  UNL1       -0.0006
     23 C         142.4560  141.6242  166.9829 C.ar    1  UNL1       -0.0031
     24 C         142.4005  142.4260  165.7164 C.ar    1  UNL1       -0.0088
     25 C         141.1003  142.5845  164.9854 C.ar    1  UNL1        0.0462
     26 C         138.0543  140.9982  163.9034 C.3     1  UNL1        0.0051
     27 C         138.5555  142.0996  164.7899 C.3     1  UNL1        0.0276
     28 C         143.6453  143.0694  165.1809 C.3     1  UNL1        0.0276
     29 C         144.5753  142.2871  164.3016 C.3     1  UNL1        0.0051
     30 N         143.3586  142.6483  154.4215 N.pl3   1  UNL1       -0.1896
     31 H         144.1121  142.9949  153.8911 H       1  UNL1        0.2524
     32 C         143.1145  141.1705  154.5012 C.ar    1  UNL1        0.1435
     33 C         141.9430  140.5643  153.7869 C.ar    1  UNL1        0.0356
     34 C         141.6989  139.0864  153.8666 C.ar    1  UNL1        0.0174
     35 C         142.6262  138.2147  154.6606 C.ar    1  UNL1        0.0511
     36 C         143.7976  138.8210  155.3749 C.ar    1  UNL1        0.0541
     37 C         144.0417  140.2989  155.2952 C.ar    1  UNL1        0.1684
     38 N         142.3820  136.7369  154.7403 N.pl3   1  UNL1       -0.3074
     39 C         142.1138  135.9526  153.4902 C.3     1  UNL1        0.0913
     40 C         141.8696  134.4747  153.5698 C.3     1  UNL1        0.0305
     41 C         141.8937  133.7813  154.8997 C.3     1  UNL1        0.0801
     42 C         142.1619  134.5656  156.1498 C.3     1  UNL1        0.0305
     43 C         142.4061  136.0435  156.0701 C.3     1  UNL1        0.0913
     44 C         141.6495  132.3034  154.9794 C.2     1  UNL1        0.2253
     45 O         140.5725  131.6750  154.1457 O.2     1  UNL1       -0.2749
     46 N         142.4824  131.4539  155.8930 N.am    1  UNL1       -0.2793
     47 C         143.6108  131.7131  156.8468 C.3     1  UNL1        0.0976
     48 C         143.6604  130.2525  157.1850 C.3     1  UNL1        0.0660
     49 C         144.7887  130.5117  158.1388 C.3     1  UNL1        0.0767
     50 N         144.8383  129.0512  158.4770 N.3     1  UNL1       -0.2712
     51 C         145.6713  128.2016  159.3905 C.3     1  UNL1        0.0896
     52 C         143.7100  128.7920  157.5232 C.3     1  UNL1        0.0767
     53 C         142.5321  129.9933  156.2312 C.3     1  UNL1        0.0976
     54 O         145.2131  140.9051  156.0095 O.3     1  UNL1       -0.4687
     55 C         145.0729  141.3534  157.4341 C.3     1  UNL1        0.2526
@<TRIPOS>BOND
     1    26    27    1
     2    27    20    1
     3    20    21   ar
     4    21    22   ar
     5    22    23   ar
     6    23    24   ar
     7    24    28    1
     8    28    29    1
     9    24    25   ar
    10    25    10    1
    11    10    11    1
    12    11    12    1
    13    12    13    1
    14    13    14   ar
    15    14    15   ar
    16    15     1    1
    17     1     2    2
    18     2     3    1
    19     3    30    1
    20    30    32    1
    21    32    33   ar
    22    33    34   ar
    23    34    35   ar
    24    35    38    1
    25    38    39    1
    26    39    40    1
    27    40    41    1
    28    41    44    1
    29    44    45    2
    30    44    46   am
    31    46    47    1
    32    47    48    1
    33    48    49    1
    34    49    50    1
    35    50    51    1
    36    50    52    1
    37    48    53    1
    38    41    42    1
    39    42    43    1
    40    35    36   ar
    41    36    37   ar
    42    37    54    1
    43    54    55    1
    44     3     4    2
    45     4     5    1
    46     5     6    2
    47     6     7    1
    48     7     8    2
    49     8     9    1
    50    15    16   ar
    51    16    17   ar
    52    17    18    1
    53    18    19    2
    54    25    20   ar
    55    18    10   am
    56    17    13   ar
    57     9     1    1
    58    37    32   ar
    59     9     5    1
    60    43    38    1
    61    53    46    1
    62    52    48    1
    63    30    31    1
@<TRIPOS>MOLECULE
*****
 55 63 0 0 0
SMALL
GASTEIGER

@<TRIPOS>ATOM
      1 C         141.7579  142.4223  158.7717 C.2     1  UNL1        0.1542
      2 N         142.3442  141.6420  157.6327 N.2     1  UNL1       -0.0655
      3 C         142.3760  142.2348  156.2551 C.cat   1  UNL1        0.4642
      4 N         141.8215  143.6080  156.0166 N.2     1  UNL1        0.0296
      5 C         141.2352  144.3883  157.1556 C.2     1  UNL1        0.3685
      6 N         140.6186  145.7541  157.2245 N.2     1  UNL1       -0.0340
      7 C         140.2058  146.0052  158.6445 C.2     1  UNL1        0.2321
      8 C         140.5672  144.7948  159.4533 C.2     1  UNL1        0.0439
      9 C         141.2034  143.7955  158.5332 C.3     1  UNL1        0.1946
     10 N         141.0841  140.3747  164.8509 N.am    1  UNL1       -0.2526
     11 C         142.1598  139.4058  164.4587 C.3     1  UNL1        0.1229
     12 C         142.7253  139.4347  163.0696 C.3     1  UNL1        0.1280
     13 N         142.2150  140.4326  162.0728 N.ar    1  UNL1       -0.3206
     14 C         142.5777  140.6970  160.6415 C.ar    1  UNL1        0.0787
     15 C         141.7261  141.8294  160.1492 C.ar    1  UNL1        0.0498
     16 C         140.8371  142.2649  161.2761 C.ar    1  UNL1        0.0259
     17 C         141.1392  141.4016  162.4650 C.ar    1  UNL1        0.1147
     18 C         140.5738  141.3727  163.8540 C.2     1  UNL1        0.2687
     19 O         139.4980  142.3417  164.2463 O.2     1  UNL1       -0.2680
     20 C         141.2235  141.0647  167.3518 C.ar    1  UNL1       -0.0088
     21 C         140.6580  141.0358  168.7409 C.ar    1  UNL1       -0.0031
     22 C         139.3876  140.2879  169.0180 C.ar    1  UNL1       -0.0006
     23 C         138.6827  139.5691  167.9060 C.ar    1  UNL1       -0.0031
     24 C         139.2482  139.5980  166.5170 C.ar    1  UNL1       -0.0088
     25 C         140.5186  140.3458  166.2400 C.ar    1  UNL1        0.0462
     26 C         143.3120  142.3487  168.2119 C.3     1  UNL1        0.0051
     27 C         142.4939  141.8125  167.0747 C.3     1  UNL1        0.0276
     28 C         138.5432  138.8791  165.4052 C.3     1  UNL1        0.0276
     29 C         138.9133  137.4638  165.0737 C.3     1  UNL1        0.0051
     30 N         142.9623  141.4545  155.1162 N.pl3   1  UNL1       -0.1896
     31 H         143.4334  141.9227  154.3895 H       1  UNL1        0.2524
     32 C         142.8308  139.9606  155.0844 C.ar    1  UNL1        0.1435
     33 C         141.6180  139.3274  154.4694 C.ar    1  UNL1        0.0356
     34 C         141.4864  137.8335  154.4377 C.ar    1  UNL1        0.0174
     35 C         142.5678  136.9728  155.0208 C.ar    1  UNL1        0.0511
     36 C         143.7806  137.6060  155.6358 C.ar    1  UNL1        0.0541
     37 C         143.9120  139.0999  155.6675 C.ar    1  UNL1        0.1684
     38 N         142.4362  135.4789  154.9890 N.pl3   1  UNL1       -0.3074
     39 C         142.2682  134.7685  153.6787 C.3     1  UNL1        0.0913
     40 C         142.1367  133.2746  153.6469 C.3     1  UNL1        0.0305
     41 C         142.1731  132.4912  154.9255 C.3     1  UNL1        0.0801
     42 C         142.3411  133.2016  156.2359 C.3     1  UNL1        0.0305
     43 C         142.4727  134.6955  156.2677 C.3     1  UNL1        0.0913
     44 C         142.0416  130.9973  154.8938 C.2     1  UNL1        0.2253
     45 O         141.3078  130.3326  153.7670 O.2     1  UNL1       -0.2749
     46 N         142.6439  130.1680  155.9890 N.am    1  UNL1       -0.2793
     47 C         143.4231  130.4628  157.2365 C.3     1  UNL1        0.0976
     48 C         143.4957  128.9952  157.5380 C.3     1  UNL1        0.0660
     49 C         144.2748  129.2900  158.7853 C.3     1  UNL1        0.0767
     50 N         144.3475  127.8224  159.0868 N.3     1  UNL1       -0.2712
     51 C         144.9498  126.9931  160.1821 C.3     1  UNL1        0.0896
     52 C         143.5684  127.5276  157.8394 C.3     1  UNL1        0.0767
     53 C         142.7165  128.7004  156.2905 C.3     1  UNL1        0.0976
     54 O         145.1248  139.7331  156.2824 O.3     1  UNL1       -0.4687
     55 C         146.0874  140.4996  155.4245 C.3     1  UNL1        0.2526
@<TRIPOS>BOND
     1    26    27    1
     2    27    20    1
     3    20    21   ar
     4    21    22   ar
     5    22    23   ar
     6    23    24   ar
     7    24    28    1
     8    28    29    1
     9    24    25   ar
    10    25    10    1
    11    10    11    1
    12    11    12    1
    13    12    13    1
    14    13    14   ar
    15    14    15   ar
    16    15     1    1
    17     1     2    2
    18     2     3    1
    19     3    30    1
    20    30    32    1
    21    32    33   ar
    22    33    34   ar
    23    34    35   ar
    24    35    38    1
    25    38    39    1
    26    39    40    1
    27    40    41    1
    28    41    44    1
    29    44    45    2
    30    44    46   am
    31    46    47    1
    32    47    48    1
    33    48    49    1
    34    49    50    1
    35    50    51    1
    36    50    52    1
    37    48    53    1
    38    41    42    1
    39    42    43    1
    40    35    36   ar
    41    36    37   ar
    42    37    54    1
    43    54    55    1
    44     3     4    2
    45     4     5    1
    46     5     6    2
    47     6     7    1
    48     7     8    2
    49     8     9    1
    50    15    16   ar
    51    16    17   ar
    52    17    18    1
    53    18    19    2
    54    25    20   ar
    55    18    10   am
    56    17    13   ar
    57     9     1    1
    58    37    32   ar
    59     9     5    1
    60    43    38    1
    61    53    46    1
    62    52    48    1
    63    30    31    1
@<TRIPOS>MOLECULE
*****
 55 63 0 0 0
SMALL
GASTEIGER

@<TRIPOS>ATOM
      1 C         143.4459  141.5553  157.1906 C.2     1  UNL1        0.1542
      2 N         142.4542  140.8638  156.3027 N.2     1  UNL1       -0.0655
      3 C         142.8576  140.4260  154.9259 C.cat   1  UNL1        0.4642
      4 N         144.2528  140.6796  154.4370 N.2     1  UNL1        0.0296
      5 C         145.2445  141.3711  155.3249 C.2     1  UNL1        0.3685
      6 N         146.6799  141.7548  155.1185 N.2     1  UNL1       -0.0340
      7 C         147.1635  142.4297  156.3677 C.2     1  UNL1        0.2321
      8 C         146.0271  142.4631  157.3462 C.2     1  UNL1        0.0439
      9 C         144.8411  141.8089  156.7017 C.3     1  UNL1        0.1946
     10 N         141.8197  142.7249  163.3217 N.am    1  UNL1       -0.2526
     11 C         141.6256  144.1249  162.8197 C.3     1  UNL1        0.1229
     12 C         141.8780  144.4459  161.3762 C.3     1  UNL1        0.1280
     13 N         142.3245  143.3667  160.4350 N.ar    1  UNL1       -0.3206
     14 C         142.6482  143.3831  158.9704 C.ar    1  UNL1        0.0787
     15 C         143.0424  141.9930  158.5674 C.ar    1  UNL1        0.0498
     16 C         142.9623  141.1176  159.7828 C.ar    1  UNL1        0.0259
     17 C         142.5186  141.9666  160.9371 C.ar    1  UNL1        0.1147
     18 C         142.2662  141.6457  162.3804 C.2     1  UNL1        0.2687
     19 O         142.4604  140.2456  162.8825 O.2     1  UNL1       -0.2680
     20 C         140.1731  142.1148  165.2365 C.ar    1  UNL1       -0.0088
     21 C         139.9208  141.7938  166.6799 C.ar    1  UNL1       -0.0031
     22 C         141.0628  141.7619  167.6519 C.ar    1  UNL1       -0.0006
     23 C         142.4572  142.0511  167.1804 C.ar    1  UNL1       -0.0031
     24 C         142.7094  142.3720  165.7371 C.ar    1  UNL1       -0.0088
     25 C         141.5674  142.4039  164.7651 C.ar    1  UNL1        0.0462
     26 C         138.0317  143.2640  164.3179 C.3     1  UNL1        0.0051
     27 C         139.0311  142.1466  164.2646 C.3     1  UNL1        0.0276
     28 C         144.1038  142.6611  165.2657 C.3     1  UNL1        0.0276
     29 C         144.7973  143.9179  165.7010 C.3     1  UNL1        0.0051
     30 N         141.8658  139.7345  154.0380 N.pl3   1  UNL1       -0.1896
     31 H         142.1790  139.1253  153.3309 H       1  UNL1        0.2524
     32 C         140.3968  139.9714  154.2276 C.ar    1  UNL1        0.1435
     33 C         139.7598  141.2122  153.6757 C.ar    1  UNL1        0.0356
     34 C         138.2908  141.4490  153.8653 C.ar    1  UNL1        0.0174
     35 C         137.4588  140.4450  154.6068 C.ar    1  UNL1        0.0511
     36 C         138.0958  139.2042  155.1587 C.ar    1  UNL1        0.0541
     37 C         139.5648  138.9674  154.9691 C.ar    1  UNL1        0.1684
     38 N         135.9898  140.6818  154.7964 N.pl3   1  UNL1       -0.3074
     39 C         135.1542  141.1678  153.6494 C.3     1  UNL1        0.0913
     40 C         133.6852  141.4046  153.8389 C.3     1  UNL1        0.0305
     41 C         133.0518  141.1554  155.1756 C.3     1  UNL1        0.0801
     42 C         133.8873  140.6695  156.3226 C.3     1  UNL1        0.0305
     43 C         135.3564  140.4326  156.1330 C.3     1  UNL1        0.0913
     44 C         131.5828  141.3922  155.3652 C.2     1  UNL1        0.2253
     45 O         130.8997  142.5016  154.6218 O.2     1  UNL1       -0.2749
     46 N         130.7969  140.5196  156.2984 N.am    1  UNL1       -0.2793
     47 C         131.1197  139.3529  157.1843 C.3     1  UNL1        0.0976
     48 C         129.6853  139.2854  157.6181 C.3     1  UNL1        0.0660
     49 C         130.0081  138.1188  158.5039 C.3     1  UNL1        0.0767
     50 N         128.5738  138.0513  158.9377 N.3     1  UNL1       -0.2712
     51 C         127.7878  137.1787  159.8708 C.3     1  UNL1        0.0896
     52 C         128.2510  139.2179  158.0518 C.3     1  UNL1        0.0767
     53 C         129.3625  140.4521  156.7322 C.3     1  UNL1        0.0976
     54 O         140.2019  137.7266  155.5210 O.3     1  UNL1       -0.4687
     55 C         140.5570  137.6495  156.9764 C.3     1  UNL1        0.2526
@<TRIPOS>BOND
     1    26    27    1
     2    27    20    1
     3    20    21   ar
     4    21    22   ar
     5    22    23   ar
     6    23    24   ar
     7    24    28    1
     8    28    29    1
     9    24    25   ar
    10    25    10    1
    11    10    11    1
    12    11    12    1
    13    12    13    1
    14    13    14   ar
    15    14    15   ar
    16    15     1    1
    17     1     2    2
    18     2     3    1
    19     3    30    1
    20    30    32    1
    21    32    33   ar
    22    33    34   ar
    23    34    35   ar
    24    35    38    1
    25    38    39    1
    26    39    40    1
    27    40    41    1
    28    41    44    1
    29    44    45    2
    30    44    46   am
    31    46    47    1
    32    47    48    1
    33    48    49    1
    34    49    50    1
    35    50    51    1
    36    50    52    1
    37    48    53    1
    38    41    42    1
    39    42    43    1
    40    35    36   ar
    41    36    37   ar
    42    37    54    1
    43    54    55    1
    44     3     4    2
    45     4     5    1
    46     5     6    2
    47     6     7    1
    48     7     8    2
    49     8     9    1
    50    15    16   ar
    51    16    17   ar
    52    17    18    1
    53    18    19    2
    54    25    20   ar
    55    18    10   am
    56    17    13   ar
    57     9     1    1
    58    37    32   ar
    59     9     5    1
    60    43    38    1
    61    53    46    1
    62    52    48    1
    63    30    31    1
@<TRIPOS>MOLECULE
*****
 55 63 0 0 0
SMALL
GASTEIGER

@<TRIPOS>ATOM
      1 C         143.1533  140.3063  157.8602 C.2     1  UNL1        0.1542
      2 N         142.1439  139.6318  156.9792 N.2     1  UNL1       -0.0655
      3 C         142.2444  139.7611  155.4881 C.cat   1  UNL1        0.4642
      4 N         143.3543  140.5648  154.8781 N.2     1  UNL1        0.0296
      5 C         144.3637  141.2393  155.7592 C.2     1  UNL1        0.3685
      6 N         145.5585  142.0909  155.4473 N.2     1  UNL1       -0.0340
      7 C         146.1963  142.4879  156.7456 C.2     1  UNL1        0.2321
      8 C         145.3958  141.8817  157.8599 C.2     1  UNL1        0.0439
      9 C         144.2632  141.1100  157.2503 C.3     1  UNL1        0.1946
     10 N         142.2243  140.3134  164.2430 N.am    1  UNL1       -0.2526
     11 C         143.2231  139.1948  164.2134 C.3     1  UNL1        0.1229
     12 C         143.8097  138.7474  162.9073 C.3     1  UNL1        0.1280
     13 N         143.3973  139.4187  161.6309 N.ar    1  UNL1       -0.3206
     14 C         143.8017  139.1959  160.2037 C.ar    1  UNL1        0.0787
     15 C         143.0527  140.1770  159.3513 C.ar    1  UNL1        0.0498
     16 C         142.1854  141.0060  160.2516 C.ar    1  UNL1        0.0259
     17 C         142.3984  140.5374  161.6605 C.ar    1  UNL1        0.1147
     18 C         141.8119  140.9847  162.9666 C.2     1  UNL1        0.2687
     19 O         140.8130  142.1034  162.9962 O.2     1  UNL1       -0.2680
     20 C         140.3566  140.1562  166.0423 C.ar    1  UNL1       -0.0088
     21 C         139.7700  140.6036  167.3484 C.ar    1  UNL1       -0.0031
     22 C         140.4646  141.6557  168.1612 C.ar    1  UNL1       -0.0006
     23 C         141.7457  142.2603  167.6680 C.ar    1  UNL1       -0.0031
     24 C         142.3322  141.8128  166.3620 C.ar    1  UNL1       -0.0088
     25 C         141.6377  140.7608  165.5491 C.ar    1  UNL1        0.0462
     26 C         138.4907  138.3640  165.8041 C.3     1  UNL1        0.0051
     27 C         139.6620  139.1042  165.2294 C.3     1  UNL1        0.0276
     28 C         143.6134  142.4175  165.8689 C.3     1  UNL1        0.0276
     29 C         143.5783  143.5745  164.9149 C.3     1  UNL1        0.0051
     30 N         141.2350  139.0866  154.6071 N.pl3   1  UNL1       -0.1896
     31 H         141.5289  138.4308  153.9343 H       1  UNL1        0.2524
     32 C         139.7777  139.4115  154.7513 C.ar    1  UNL1        0.1435
     33 C         139.3566  140.7485  155.2853 C.ar    1  UNL1        0.0356
     34 C         137.8993  141.0733  155.4295 C.ar    1  UNL1        0.0174
     35 C         136.8631  140.0612  155.0396 C.ar    1  UNL1        0.0511
     36 C         137.2842  138.7242  154.5055 C.ar    1  UNL1        0.0541
     37 C         138.7415  138.3994  154.3614 C.ar    1  UNL1        0.1684
     38 N         135.4058  140.3860  155.1837 N.pl3   1  UNL1       -0.3074
     39 C         134.6742  140.0106  156.4383 C.3     1  UNL1        0.0913
     40 C         133.2169  140.3355  156.5824 C.3     1  UNL1        0.0305
     41 C         132.4913  141.0358  155.4720 C.3     1  UNL1        0.0801
     42 C         133.2229  141.4112  154.2175 C.3     1  UNL1        0.0305
     43 C         134.6802  141.0863  154.0733 C.3     1  UNL1        0.0913
     44 C         131.0340  141.3607  155.6161 C.2     1  UNL1        0.2253
     45 O         130.5208  142.7069  155.1986 O.2     1  UNL1       -0.2749
     46 N         130.0899  140.3393  156.1777 N.am    1  UNL1       -0.2793
     47 C         130.2267  138.9348  156.6865 C.3     1  UNL1        0.0976
     48 C         128.7546  138.8948  156.9721 C.3     1  UNL1        0.0660
     49 C         128.8915  137.4904  157.4808 C.3     1  UNL1        0.0767
     50 N         127.4195  137.4504  157.7663 N.3     1  UNL1       -0.2712
     51 C         126.4753  136.4290  158.3280 C.3     1  UNL1        0.0896
     52 C         127.2827  138.8548  157.2576 C.3     1  UNL1        0.0767
     53 C         128.6178  140.2993  156.4633 C.3     1  UNL1        0.0976
     54 O         139.1627  137.0625  153.8274 O.3     1  UNL1       -0.4687
     55 C         138.8072  136.6695  152.4240 C.3     1  UNL1        0.2526
@<TRIPOS>BOND
     1    26    27    1
     2    27    20    1
     3    20    21   ar
     4    21    22   ar
     5    22    23   ar
     6    23    24   ar
     7    24    28    1
     8    28    29    1
     9    24    25   ar
    10    25    10    1
    11    10    11    1
    12    11    12    1
    13    12    13    1
    14    13    14   ar
    15    14    15   ar
    16    15     1    1
    17     1     2    2
    18     2     3    1
    19     3    30    1
    20    30    32    1
    21    32    33   ar
    22    33    34   ar
    23    34    35   ar
    24    35    38    1
    25    38    39    1
    26    39    40    1
    27    40    41    1
    28    41    44    1
    29    44    45    2
    30    44    46   am
    31    46    47    1
    32    47    48    1
    33    48    49    1
    34    49    50    1
    35    50    51    1
    36    50    52    1
    37    48    53    1
    38    41    42    1
    39    42    43    1
    40    35    36   ar
    41    36    37   ar
    42    37    54    1
    43    54    55    1
    44     3     4    2
    45     4     5    1
    46     5     6    2
    47     6     7    1
    48     7     8    2
    49     8     9    1
    50    15    16   ar
    51    16    17   ar
    52    17    18    1
    53    18    19    2
    54    25    20   ar
    55    18    10   am
    56    17    13   ar
    57     9     1    1
    58    37    32   ar
    59     9     5    1
    60    43    38    1
    61    53    46    1
    62    52    48    1
    63    30    31    1
@<TRIPOS>MOLECULE
*****
 55 63 0 0 0
SMALL
GASTEIGER

@<TRIPOS>ATOM
      1 C         142.9276  140.3592  157.1824 C.2     1  UNL1        0.1542
      2 N         141.8988  139.9127  156.1862 N.2     1  UNL1       -0.0655
      3 C         142.0804  140.2234  154.7300 C.cat   1  UNL1        0.4642
      4 N         143.2908  140.9805  154.2699 N.2     1  UNL1        0.0296
      5 C         144.3195  141.4270  155.2661 C.2     1  UNL1        0.3685
      6 N         145.6052  142.1840  155.1104 N.2     1  UNL1       -0.0340
      7 C         146.2181  142.3411  156.4704 C.2     1  UNL1        0.2321
      8 C         145.3114  141.6813  157.4666 C.2     1  UNL1        0.0439
      9 C         144.1380  141.1164  156.7223 C.3     1  UNL1        0.1946
     10 N         141.5541  139.4850  163.4236 N.am    1  UNL1       -0.2526
     11 C         142.7494  138.5800  163.3796 C.3     1  UNL1        0.1229
     12 C         143.5045  138.3964  162.0965 C.3     1  UNL1        0.1280
     13 N         143.0641  139.1180  160.8574 N.ar    1  UNL1       -0.3206
     14 C         143.6063  139.1337  159.4589 C.ar    1  UNL1        0.0787
     15 C         142.7460  140.0486  158.6386 C.ar    1  UNL1        0.0498
     16 C         141.6721  140.5982  159.5301 C.ar    1  UNL1        0.0259
     17 C         141.8687  140.0231  160.9014 C.ar    1  UNL1        0.1147
     18 C         141.1137  140.2066  162.1845 C.2     1  UNL1        0.2687
     19 O         139.9183  141.1116  162.2285 O.2     1  UNL1       -0.2680
     20 C         141.1721  140.7783  165.6442 C.ar    1  UNL1       -0.0088
     21 C         140.4170  140.9618  166.9274 C.ar    1  UNL1       -0.0031
     22 C         139.2889  140.0355  167.2727 C.ar    1  UNL1       -0.0006
     23 C         138.9159  138.9257  166.3351 C.ar    1  UNL1       -0.0031
     24 C         139.6710  138.7422  165.0520 C.ar    1  UNL1       -0.0088
     25 C         140.7990  139.6685  164.7067 C.ar    1  UNL1        0.0462
     26 C         142.0101  143.0502  164.7027 C.3     1  UNL1        0.0051
     27 C         142.3001  141.7046  165.2989 C.3     1  UNL1        0.0276
     28 C         139.2979  137.6323  164.1144 C.3     1  UNL1        0.0276
     29 C         138.4752  137.9254  162.8949 C.3     1  UNL1        0.0051
     30 N         141.0516  139.7768  153.7339 N.pl3   1  UNL1       -0.1896
     31 H         141.3328  139.3357  152.8999 H       1  UNL1        0.2524
     32 C         139.5943  140.0024  154.0087 C.ar    1  UNL1        0.1435
     33 C         139.0280  141.3905  153.9598 C.ar    1  UNL1        0.0356
     34 C         137.5707  141.6161  154.2345 C.ar    1  UNL1        0.0174
     35 C         136.6797  140.4535  154.5581 C.ar    1  UNL1        0.0511
     36 C         137.2461  139.0654  154.6070 C.ar    1  UNL1        0.0541
     37 C         138.7034  138.8399  154.3323 C.ar    1  UNL1        0.1684
     38 N         135.2225  140.6791  154.8329 N.pl3   1  UNL1       -0.3074
     39 C         134.3685  141.3830  153.8203 C.3     1  UNL1        0.0913
     40 C         132.9113  141.6086  154.0950 C.3     1  UNL1        0.0305
     41 C         132.3080  141.1302  155.3823 C.3     1  UNL1        0.0801
     42 C         133.1619  140.4262  156.3949 C.3     1  UNL1        0.0305
     43 C         134.6192  140.2007  156.1202 C.3     1  UNL1        0.0913
     44 C         130.8507  141.3557  155.6571 C.2     1  UNL1        0.2253
     45 O         130.2243  142.6816  155.3417 O.2     1  UNL1       -0.2749
     46 N         130.0198  140.2552  156.2475 N.am    1  UNL1       -0.2793
     47 C         130.2829  138.8436  156.6815 C.3     1  UNL1        0.0976
     48 C         128.8446  138.6988  157.0823 C.3     1  UNL1        0.0660
     49 C         129.1077  137.2873  157.5163 C.3     1  UNL1        0.0767
     50 N         127.6696  137.1425  157.9171 N.3     1  UNL1       -0.2712
     51 C         126.8386  136.0420  158.5075 C.3     1  UNL1        0.0896
     52 C         127.4065  138.5540  157.4831 C.3     1  UNL1        0.0767
     53 C         128.5815  140.1104  156.6483 C.3     1  UNL1        0.0976
     54 O         139.2698  137.4518  154.3811 O.3     1  UNL1       -0.4687
     55 C         139.7648  136.8889  155.6805 C.3     1  UNL1        0.2526
@<TRIPOS>BOND
     1    26    27    1
     2    27    20    1
     3    20    21   ar
     4    21    22   ar
     5    22    23   ar
     6    23    24   ar
     7    24    28    1
     8    28    29    1
     9    24    25   ar
    10    25    10    1
    11    10    11    1
    12    11    12    1
    13    12    13    1
    14    13    14   ar
    15    14    15   ar
    16    15     1    1
    17     1     2    2
    18     2     3    1
    19     3    30    1
    20    30    32    1
    21    32    33   ar
    22    33    34   ar
    23    34    35   ar
    24    35    38    1
    25    38    39    1
    26    39    40    1
    27    40    41    1
    28    41    44    1
    29    44    45    2
    30    44    46   am
    31    46    47    1
    32    47    48    1
    33    48    49    1
    34    49    50    1
    35    50    51    1
    36    50    52    1
    37    48    53    1
    38    41    42    1
    39    42    43    1
    40    35    36   ar
    41    36    37   ar
    42    37    54    1
    43    54    55    1
    44     3     4    2
    45     4     5    1
    46     5     6    2
    47     6     7    1
    48     7     8    2
    49     8     9    1
    50    15    16   ar
    51    16    17   ar
    52    17    18    1
    53    18    19    2
    54    25    20   ar
    55    18    10   am
    56    17    13   ar
    57     9     1    1
    58    37    32   ar
    59     9     5    1
    60    43    38    1
    61    53    46    1
    62    52    48    1
    63    30    31    1
@<TRIPOS>MOLECULE
*****
 55 63 0 0 0
SMALL
GASTEIGER

@<TRIPOS>ATOM
      1 C         142.4063  140.4357  158.1650 C.2     1  UNL1        0.1542
      2 N         141.4775  140.0846  157.0408 N.2     1  UNL1       -0.0655
      3 C         141.7789  140.5478  155.6463 C.cat   1  UNL1        0.4642
      4 N         143.0093  141.3622  155.3760 N.2     1  UNL1        0.0296
      5 C         143.9381  141.7133  156.5003 C.2     1  UNL1        0.3685
      6 N         145.2169  142.4965  156.5383 N.2     1  UNL1       -0.0340
      7 C         145.7057  142.5173  157.9563 C.2     1  UNL1        0.2321
      8 C         144.7291  141.7469  158.7946 C.2     1  UNL1        0.0439
      9 C         143.6367  141.2501  157.8948 C.3     1  UNL1        0.1946
     10 N         141.1121  139.1694  164.3557 N.am    1  UNL1       -0.2526
     11 C         141.1254  137.7451  163.8854 C.3     1  UNL1        0.1229
     12 C         141.3931  137.4341  162.4426 C.3     1  UNL1        0.1280
     13 N         141.6476  138.5474  161.4701 N.ar    1  UNL1       -0.3206
     14 C         141.9384  138.5478  159.9986 C.ar    1  UNL1        0.0787
     15 C         142.1049  139.9724  159.5595 C.ar    1  UNL1        0.0498
     16 C         141.9169  140.8525  160.7596 C.ar    1  UNL1        0.0259
     17 C         141.6343  139.9718  161.9405 C.ar    1  UNL1        0.1147
     18 C         141.3665  140.2827  163.3832 C.2     1  UNL1        0.2687
     19 O         141.3532  141.7070  163.8535 O.2     1  UNL1       -0.2680
     20 C         141.9804  139.5415  166.7759 C.ar    1  UNL1       -0.0088
     21 C         141.7127  139.8525  168.2187 C.ar    1  UNL1       -0.0031
     22 C         140.3087  140.1025  168.6840 C.ar    1  UNL1       -0.0006
     23 C         139.1726  140.0413  167.7065 C.ar    1  UNL1       -0.0031
     24 C         139.4404  139.7303  166.2638 C.ar    1  UNL1       -0.0088
     25 C         140.8443  139.4804  165.7985 C.ar    1  UNL1        0.0462
     26 C         143.9926  137.9285  166.4599 C.3     1  UNL1        0.0051
     27 C         143.3843  139.2916  166.3107 C.3     1  UNL1        0.0276
     28 C         138.3042  139.6692  165.2863 C.3     1  UNL1        0.0276
     29 C         137.9308  140.8864  164.4931 C.3     1  UNL1        0.0051
     30 N         140.8500  140.1966  154.5221 N.pl3   1  UNL1       -0.1896
     31 H         141.2138  139.8842  153.6623 H       1  UNL1        0.2524
     32 C         139.3669  140.3216  154.7080 C.ar    1  UNL1        0.1435
     33 C         138.5132  139.0901  154.7763 C.ar    1  UNL1        0.0356
     34 C         137.0300  139.2150  154.9622 C.ar    1  UNL1        0.0174
     35 C         136.4004  140.5715  155.0798 C.ar    1  UNL1        0.0511
     36 C         137.2541  141.8030  155.0115 C.ar    1  UNL1        0.0541
     37 C         138.7373  141.6780  154.8256 C.ar    1  UNL1        0.1684
     38 N         134.9173  140.6965  155.2657 N.pl3   1  UNL1       -0.3074
     39 C         134.0879  141.3965  154.2302 C.3     1  UNL1        0.0913
     40 C         132.6047  141.5214  154.4161 C.3     1  UNL1        0.0305
     41 C         131.9510  140.9463  155.6375 C.3     1  UNL1        0.0801
     42 C         132.7803  140.2463  156.6730 C.3     1  UNL1        0.0305
     43 C         134.2635  140.1214  156.4871 C.3     1  UNL1        0.0913
     44 C         130.4678  141.0712  155.8235 C.2     1  UNL1        0.2253
     45 O         129.7155  142.1714  155.1353 O.2     1  UNL1       -0.2749
     46 N         129.7368  140.0958  156.6977 N.am    1  UNL1       -0.2793
     47 C         130.1326  138.9059  157.5210 C.3     1  UNL1        0.0976
     48 C         128.7031  138.7163  157.9342 C.3     1  UNL1        0.0660
     49 C         129.0988  137.5266  158.7574 C.3     1  UNL1        0.0767
     50 N         127.6694  137.3370  159.1705 N.3     1  UNL1       -0.2712
     51 C         126.9384  136.3616  160.0448 C.3     1  UNL1        0.0896
     52 C         127.2737  138.5268  158.3473 C.3     1  UNL1        0.0767
     53 C         128.3073  139.9062  157.1109 C.3     1  UNL1        0.0976
     54 O         139.5910  142.9095  154.7574 O.3     1  UNL1       -0.4687
     55 C         139.8466  143.5728  153.4364 C.3     1  UNL1        0.2526
@<TRIPOS>BOND
     1    26    27    1
     2    27    20    1
     3    20    21   ar
     4    21    22   ar
     5    22    23   ar
     6    23    24   ar
     7    24    28    1
     8    28    29    1
     9    24    25   ar
    10    25    10    1
    11    10    11    1
    12    11    12    1
    13    12    13    1
    14    13    14   ar
    15    14    15   ar
    16    15     1    1
    17     1     2    2
    18     2     3    1
    19     3    30    1
    20    30    32    1
    21    32    33   ar
    22    33    34   ar
    23    34    35   ar
    24    35    38    1
    25    38    39    1
    26    39    40    1
    27    40    41    1
    28    41    44    1
    29    44    45    2
    30    44    46   am
    31    46    47    1
    32    47    48    1
    33    48    49    1
    34    49    50    1
    35    50    51    1
    36    50    52    1
    37    48    53    1
    38    41    42    1
    39    42    43    1
    40    35    36   ar
    41    36    37   ar
    42    37    54    1
    43    54    55    1
    44     3     4    2
    45     4     5    1
    46     5     6    2
    47     6     7    1
    48     7     8    2
    49     8     9    1
    50    15    16   ar
    51    16    17   ar
    52    17    18    1
    53    18    19    2
    54    25    20   ar
    55    18    10   am
    56    17    13   ar
    57     9     1    1
    58    37    32   ar
    59     9     5    1
    60    43    38    1
    61    53    46    1
    62    52    48    1
    63    30    31    1
@<TRIPOS>MOLECULE
*****
 55 63 0 0 0
SMALL
GASTEIGER

@<TRIPOS>ATOM
      1 C         141.4677  144.3514  157.0622 C.2     1  UNL1        0.1542
      2 N         142.3691  143.3804  156.3589 N.2     1  UNL1       -0.0655
      3 C         142.4989  143.4240  154.8651 C.cat   1  UNL1        0.4642
      4 N         141.7272  144.4387  154.0746 N.2     1  UNL1        0.0296
      5 C         140.8258  145.4097  154.7779 C.2     1  UNL1        0.3685
      6 N         139.9472  146.5137  154.2683 N.2     1  UNL1       -0.0340
      7 C         139.2745  147.1522  155.4472 C.2     1  UNL1        0.2321
      8 C         139.7373  146.4430  156.6853 C.2     1  UNL1        0.0439
      9 C         140.6960  145.3661  156.2716 C.3     1  UNL1        0.1946
     10 N         141.1307  143.4469  163.4396 N.am    1  UNL1       -0.2526
     11 C         140.6963  144.8826  163.4438 C.3     1  UNL1        0.1229
     12 C         140.5915  145.6384  162.1523 C.3     1  UNL1        0.1280
     13 N         140.9211  144.9583  160.8566 N.ar    1  UNL1       -0.3206
     14 C         140.9102  145.4436  159.4373 C.ar    1  UNL1        0.0787
     15 C         141.3379  144.3077  158.5559 C.ar    1  UNL1        0.0498
     16 C         141.6131  143.1205  159.4304 C.ar    1  UNL1        0.0259
     17 C         141.3554  143.5226  160.8524 C.ar    1  UNL1        0.1147
     18 C         141.4602  142.7669  162.1438 C.2     1  UNL1        0.2687
     19 O         141.8946  141.3312  162.1396 O.2     1  UNL1       -0.2680
     20 C         140.0576  141.9179  165.2453 C.ar    1  UNL1       -0.0088
     21 C         140.1625  141.1622  166.5368 C.ar    1  UNL1       -0.0031
     22 C         141.4453  141.1797  167.3140 C.ar    1  UNL1       -0.0006
     23 C         142.6233  141.9529  166.7997 C.ar    1  UNL1       -0.0031
     24 C         142.5184  142.7087  165.5082 C.ar    1  UNL1       -0.0088
     25 C         141.2355  142.6911  164.7311 C.ar    1  UNL1        0.0462
     26 C         137.7968  143.0291  164.6093 C.3     1  UNL1        0.0051
     27 C         138.7748  141.9004  164.4682 C.3     1  UNL1        0.0276
     28 C         143.6964  143.4819  164.9940 C.3     1  UNL1        0.0276
     29 C         144.8424  143.7992  165.9083 C.3     1  UNL1        0.0051
     30 N         143.4003  142.4529  154.1620 N.pl3   1  UNL1       -0.1896
     31 H         144.0554  142.7779  153.5029 H       1  UNL1        0.2524
     32 C         143.3035  140.9867  154.4632 C.ar    1  UNL1        0.1435
     33 C         142.0178  140.2539  154.2183 C.ar    1  UNL1        0.0356
     34 C         141.9211  138.7877  154.5195 C.ar    1  UNL1        0.0174
     35 C         143.1101  138.0541  155.0656 C.ar    1  UNL1        0.0511
     36 C         144.3959  138.7868  155.3105 C.ar    1  UNL1        0.0541
     37 C         144.4925  140.2531  155.0092 C.ar    1  UNL1        0.1684
     38 N         143.0134  136.5878  155.3668 N.pl3   1  UNL1       -0.3074
     39 C         142.9099  135.5970  154.2453 C.3     1  UNL1        0.0913
     40 C         142.8131  134.1308  154.5465 C.3     1  UNL1        0.0305
     41 C         142.8199  133.6554  155.9691 C.3     1  UNL1        0.0801
     42 C         142.9234  134.6461  157.0906 C.3     1  UNL1        0.0305
     43 C         143.0202  136.1124  156.7894 C.3     1  UNL1        0.0913
     44 C         142.7232  132.1891  156.2704 C.2     1  UNL1        0.2253
     45 O         143.4394  131.6186  157.4585 O.2     1  UNL1       -0.2749
     46 N         141.9102  131.2933  155.3835 N.am    1  UNL1       -0.2793
     47 C         141.0824  131.4914  154.1483 C.3     1  UNL1        0.0976
     48 C         140.7604  130.0264  154.1292 C.3     1  UNL1        0.0660
     49 C         139.9326  130.2245  152.8941 C.3     1  UNL1        0.0767
     50 N         139.6106  128.7596  152.8750 N.3     1  UNL1       -0.2712
     51 C         138.7976  127.8637  151.9881 C.3     1  UNL1        0.0896
     52 C         140.4384  128.5615  154.1101 C.3     1  UNL1        0.0767
     53 C         141.5882  129.8283  155.3644 C.3     1  UNL1        0.0976
     54 O         145.7783  140.9858  155.2541 O.3     1  UNL1       -0.4687
     55 C         145.9611  141.7797  156.5137 C.3     1  UNL1        0.2526
@<TRIPOS>BOND
     1    26    27    1
     2    27    20    1
     3    20    21   ar
     4    21    22   ar
     5    22    23   ar
     6    23    24   ar
     7    24    28    1
     8    28    29    1
     9    24    25   ar
    10    25    10    1
    11    10    11    1
    12    11    12    1
    13    12    13    1
    14    13    14   ar
    15    14    15   ar
    16    15     1    1
    17     1     2    2
    18     2     3    1
    19     3    30    1
    20    30    32    1
    21    32    33   ar
    22    33    34   ar
    23    34    35   ar
    24    35    38    1
    25    38    39    1
    26    39    40    1
    27    40    41    1
    28    41    44    1
    29    44    45    2
    30    44    46   am
    31    46    47    1
    32    47    48    1
    33    48    49    1
    34    49    50    1
    35    50    51    1
    36    50    52    1
    37    48    53    1
    38    41    42    1
    39    42    43    1
    40    35    36   ar
    41    36    37   ar
    42    37    54    1
    43    54    55    1
    44     3     4    2
    45     4     5    1
    46     5     6    2
    47     6     7    1
    48     7     8    2
    49     8     9    1
    50    15    16   ar
    51    16    17   ar
    52    17    18    1
    53    18    19    2
    54    25    20   ar
    55    18    10   am
    56    17    13   ar
    57     9     1    1
    58    37    32   ar
    59     9     5    1
    60    43    38    1
    61    53    46    1
    62    52    48    1
    63    30    31    1
