@<TRIPOS>MOLECULE
*****
 25 28 0 0 0
SMALL
GASTEIGER

@<TRIPOS>ATOM
      1 N         139.7317  139.8744  165.3396 N.am    1  UNL1       -0.2413
      2 C         139.3105  138.8021  164.3790 C.3     1  UNL1        0.1212
      3 C         138.3452  139.4071  163.4031 C.3     1  UNL1        0.1169
      4 N         138.1698  140.8533  163.7607 N.am    1  UNL1       -0.2606
      5 C         139.0267  141.1420  164.9575 C.2     1  UNL1        0.3111
      6 O         139.1560  142.4660  165.6506 O.2     1  UNL1       -0.2520
      7 C         141.2514  139.9751  169.0043 C.ar    1  UNL1        0.0697
      8 C         142.6055  139.3756  168.7662 C.ar    1  UNL1        0.0104
      9 C         143.0018  138.9423  167.3859 C.ar    1  UNL1        0.0020
     10 C         142.0438  139.1085  166.2437 C.ar    1  UNL1        0.0150
     11 C         140.6896  139.7081  166.4818 C.ar    1  UNL1        0.0560
     12 C         140.2934  140.1414  167.8621 C.ar    1  UNL1        0.0252
     13 N         140.4589  140.8417  171.7650 N.1     1  UNL1       -0.1908
     14 C         140.8551  140.4084  170.3846 C.1     1  UNL1        0.1005
     15 C         137.2917  141.8378  163.0469 C.3     1  UNL1        0.1123
     16 C         137.9027  142.8860  162.1650 C.3     1  UNL1        0.0944
     17 N         139.3350  143.2874  162.3587 N.3     1  UNL1       -0.2637
     18 C         140.5300  142.6072  161.7594 C.3     1  UNL1        0.0992
     19 C         141.7573  143.3388  162.2161 C.ar    1  UNL1       -0.0088
     20 C         143.2159  143.1202  161.9430 C.ar    1  UNL1       -0.0032
     21 C         144.2380  144.0339  162.5516 C.ar    1  UNL1       -0.0003
     22 C         143.8015  145.1662  163.4332 C.ar    1  UNL1       -0.0003
     23 C         142.3429  145.3848  163.7063 C.ar    1  UNL1       -0.0032
     24 C         141.3208  144.4711  163.0977 C.ar    1  UNL1       -0.0088
     25 C         139.8237  144.4393  163.1858 C.3     1  UNL1        0.0992
@<TRIPOS>BOND
     1    13    14    3
     2    14     7    1
     3     7     8   ar
     4     8     9   ar
     5     9    10   ar
     6    10    11   ar
     7    11     1    1
     8     1     2    1
     9     2     3    1
    10     3     4    1
    11     4    15    1
    12    15    16    1
    13    16    17    1
    14    17    18    1
    15    18    19    1
    16    19    20   ar
    17    20    21   ar
    18    21    22   ar
    19    22    23   ar
    20    23    24   ar
    21    24    25    1
    22     4     5   am
    23     5     6    2
    24    11    12   ar
    25    12     7   ar
    26     5     1   am
    27    25    17    1
    28    24    19   ar
@<TRIPOS>MOLECULE
*****
 25 28 0 0 0
SMALL
GASTEIGER

@<TRIPOS>ATOM
      1 N         140.6291  139.2574  166.1628 N.am    1  UNL1       -0.2413
      2 C         141.7893  138.6776  165.4093 C.3     1  UNL1        0.1212
      3 C         141.2539  138.0026  164.1813 C.3     1  UNL1        0.1169
      4 N         139.7626  138.1653  164.1760 N.am    1  UNL1       -0.2606
      5 C         139.3766  138.9407  165.4006 C.2     1  UNL1        0.3111
      6 O         137.9827  139.3310  165.7940 O.2     1  UNL1       -0.2520
      7 C         142.0557  141.4861  169.1203 C.ar    1  UNL1        0.0697
      8 C         140.8651  141.5449  170.0307 C.ar    1  UNL1        0.0104
      9 C         139.5957  140.8412  169.6518 C.ar    1  UNL1        0.0020
     10 C         139.5170  140.0787  168.3625 C.ar    1  UNL1        0.0150
     11 C         140.7077  140.0198  167.4521 C.ar    1  UNL1        0.0560
     12 C         141.9771  140.7235  167.8310 C.ar    1  UNL1        0.0252
     13 N         144.5944  142.8935  169.8782 N.1     1  UNL1       -0.1908
     14 C         143.3251  142.1898  169.4993 C.1     1  UNL1        0.1005
     15 C         138.8226  137.6440  163.1298 C.3     1  UNL1        0.1123
     16 C         138.1112  138.5990  162.2178 C.3     1  UNL1        0.0944
     17 N         138.4060  140.0679  162.2925 N.3     1  UNL1       -0.2637
     18 C         137.4867  141.1256  162.8273 C.3     1  UNL1        0.0992
     19 C         138.1844  142.4483  162.7108 C.ar    1  UNL1       -0.0088
     20 C         137.7644  143.8405  163.0789 C.ar    1  UNL1       -0.0032
     21 C         138.6950  144.9924  162.8401 C.ar    1  UNL1       -0.0003
     22 C         140.0456  144.7521  162.2333 C.ar    1  UNL1       -0.0003
     23 C         140.4656  143.3600  161.8652 C.ar    1  UNL1       -0.0032
     24 C         139.5350  142.2081  162.1040 C.ar    1  UNL1       -0.0088
     25 C         139.6719  140.7369  161.8455 C.3     1  UNL1        0.0992
@<TRIPOS>BOND
     1    13    14    3
     2    14     7    1
     3     7     8   ar
     4     8     9   ar
     5     9    10   ar
     6    10    11   ar
     7    11     1    1
     8     1     2    1
     9     2     3    1
    10     3     4    1
    11     4    15    1
    12    15    16    1
    13    16    17    1
    14    17    18    1
    15    18    19    1
    16    19    20   ar
    17    20    21   ar
    18    21    22   ar
    19    22    23   ar
    20    23    24   ar
    21    24    25    1
    22     4     5   am
    23     5     6    2
    24    11    12   ar
    25    12     7   ar
    26     5     1   am
    27    25    17    1
    28    24    19   ar
@<TRIPOS>MOLECULE
*****
 25 28 0 0 0
SMALL
GASTEIGER

@<TRIPOS>ATOM
      1 N         140.4292  138.4031  163.8492 N.am    1  UNL1       -0.2413
      2 C         139.8019  138.2335  162.4972 C.3     1  UNL1        0.1212
      3 C         140.9020  138.0280  161.4983 C.3     1  UNL1        0.1169
      4 N         142.2091  138.0706  162.2330 N.am    1  UNL1       -0.2606
      5 C         141.9168  138.3025  163.6859 C.2     1  UNL1        0.3111
      6 O         142.9337  138.4141  164.7829 O.2     1  UNL1       -0.2520
      7 C         139.4474  139.9100  167.3868 C.ar    1  UNL1        0.0697
      8 C         138.2333  139.0929  167.7159 C.ar    1  UNL1        0.0104
      9 C         137.7512  138.0459  166.7561 C.ar    1  UNL1        0.0020
     10 C         138.4831  137.8159  165.4671 C.ar    1  UNL1        0.0150
     11 C         139.6972  138.6330  165.1380 C.ar    1  UNL1        0.0560
     12 C         140.1793  139.6800  166.0979 C.ar    1  UNL1        0.0252
     13 N         140.4117  142.0041  169.3065 N.1     1  UNL1       -0.1908
     14 C         139.9295  140.9570  168.3467 C.1     1  UNL1        0.1005
     15 C         143.5695  137.9097  161.6220 C.3     1  UNL1        0.1123
     16 C         144.3054  139.1094  161.1032 C.3     1  UNL1        0.0944
     17 N         144.1963  140.4234  161.8185 N.3     1  UNL1       -0.2637
     18 C         143.5306  141.6606  161.2930 C.3     1  UNL1        0.0992
     19 C         143.6566  142.7327  162.3345 C.ar    1  UNL1       -0.0088
     20 C         143.1903  144.1580  162.3693 C.ar    1  UNL1       -0.0032
     21 C         143.4676  145.0085  163.5733 C.ar    1  UNL1       -0.0003
     22 C         144.2111  144.4339  164.7425 C.ar    1  UNL1       -0.0003
     23 C         144.6774  143.0087  164.7077 C.ar    1  UNL1       -0.0032
     24 C         144.4001  142.1581  163.5037 C.ar    1  UNL1       -0.0088
     25 C         144.7337  140.7308  163.1847 C.3     1  UNL1        0.0992
@<TRIPOS>BOND
     1    13    14    3
     2    14     7    1
     3     7     8   ar
     4     8     9   ar
     5     9    10   ar
     6    10    11   ar
     7    11     1    1
     8     1     2    1
     9     2     3    1
    10     3     4    1
    11     4    15    1
    12    15    16    1
    13    16    17    1
    14    17    18    1
    15    18    19    1
    16    19    20   ar
    17    20    21   ar
    18    21    22   ar
    19    22    23   ar
    20    23    24   ar
    21    24    25    1
    22     4     5   am
    23     5     6    2
    24    11    12   ar
    25    12     7   ar
    26     5     1   am
    27    25    17    1
    28    24    19   ar
@<TRIPOS>MOLECULE
*****
 25 28 0 0 0
SMALL
GASTEIGER

@<TRIPOS>ATOM
      1 N         141.2196  139.5027  166.6400 N.am    1  UNL1       -0.2413
      2 C         142.2146  139.1233  165.5836 C.3     1  UNL1        0.1212
      3 C         141.4691  138.4699  164.4578 C.3     1  UNL1        0.1169
      4 N         140.0132  138.4457  164.8185 N.am    1  UNL1       -0.2606
      5 C         139.8591  139.0839  166.1671 C.2     1  UNL1        0.3111
      6 O         138.5706  139.2706  166.9121 O.2     1  UNL1       -0.2520
      7 C         141.2150  142.1847  169.5651 C.ar    1  UNL1        0.0697
      8 C         142.1524  141.5398  170.5425 C.ar    1  UNL1        0.0104
      9 C         142.7789  140.2158  170.2191 C.ar    1  UNL1        0.0020
     10 C         142.4680  139.5367  168.9182 C.ar    1  UNL1        0.0150
     11 C         141.5306  140.1817  167.9408 C.ar    1  UNL1        0.0560
     12 C         140.9041  141.5057  168.2643 C.ar    1  UNL1        0.0252
     13 N         139.9620  144.8327  170.2120 N.1     1  UNL1       -0.1908
     14 C         140.5885  143.5087  169.8886 C.1     1  UNL1        0.1005
     15 C         138.9060  137.8820  163.9780 C.3     1  UNL1        0.1123
     16 C         138.4026  138.6467  162.7898 C.3     1  UNL1        0.0944
     17 N         138.6099  140.1302  162.7099 N.3     1  UNL1       -0.2637
     18 C         137.6787  141.1804  163.2389 C.3     1  UNL1        0.0992
     19 C         138.2781  142.5231  162.9428 C.ar    1  UNL1       -0.0088
     20 C         137.8068  143.9180  163.2296 C.ar    1  UNL1       -0.0032
     21 C         138.6371  145.0925  162.8044 C.ar    1  UNL1       -0.0003
     22 C         139.9388  144.8722  162.0923 C.ar    1  UNL1       -0.0003
     23 C         140.4102  143.4774  161.8055 C.ar    1  UNL1       -0.0032
     24 C         139.5798  142.3029  162.2308 C.ar    1  UNL1       -0.0088
     25 C         139.7849  140.8239  162.0868 C.3     1  UNL1        0.0992
@<TRIPOS>BOND
     1    13    14    3
     2    14     7    1
     3     7     8   ar
     4     8     9   ar
     5     9    10   ar
     6    10    11   ar
     7    11     1    1
     8     1     2    1
     9     2     3    1
    10     3     4    1
    11     4    15    1
    12    15    16    1
    13    16    17    1
    14    17    18    1
    15    18    19    1
    16    19    20   ar
    17    20    21   ar
    18    21    22   ar
    19    22    23   ar
    20    23    24   ar
    21    24    25    1
    22     4     5   am
    23     5     6    2
    24    11    12   ar
    25    12     7   ar
    26     5     1   am
    27    25    17    1
    28    24    19   ar
@<TRIPOS>MOLECULE
*****
 25 28 0 0 0
SMALL
GASTEIGER

@<TRIPOS>ATOM
      1 N         140.9338  142.9956  165.4810 N.am    1  UNL1       -0.2413
      2 C         140.0629  143.8685  164.6268 C.3     1  UNL1        0.1212
      3 C         140.9510  144.6418  163.6976 C.3     1  UNL1        0.1169
      4 N         142.3708  144.2468  163.9776 N.am    1  UNL1       -0.2606
      5 C         142.3601  143.2294  165.0798 C.2     1  UNL1        0.3111
      6 O         143.5643  142.5628  165.6761 O.2     1  UNL1       -0.2520
      7 C         140.1681  141.4685  169.0631 C.ar    1  UNL1        0.0697
      8 C         139.5162  140.1716  168.6849 C.ar    1  UNL1        0.0104
      9 C         139.3368  139.8160  167.2387 C.ar    1  UNL1        0.0020
     10 C         139.8093  140.7574  166.1707 C.ar    1  UNL1        0.0150
     11 C         140.4612  142.0543  166.5489 C.ar    1  UNL1        0.0560
     12 C         140.6406  142.4098  167.9951 C.ar    1  UNL1        0.0252
     13 N         140.5268  142.1796  171.9554 N.1     1  UNL1       -0.1908
     14 C         140.3474  141.8241  170.5093 C.1     1  UNL1        0.1005
     15 C         143.5875  144.7762  163.2782 C.3     1  UNL1        0.1123
     16 C         144.4557  143.8502  162.4790 C.3     1  UNL1        0.0944
     17 N         143.9414  142.4994  162.0779 N.3     1  UNL1       -0.2637
     18 C         144.5110  141.1778  162.5010 C.3     1  UNL1        0.0992
     19 C         143.6889  140.0947  161.8678 C.ar    1  UNL1       -0.0088
     20 C         143.7824  138.5988  161.9276 C.ar    1  UNL1       -0.0032
     21 C         142.7982  137.7551  161.1730 C.ar    1  UNL1       -0.0003
     22 C         141.7205  138.4073  160.3586 C.ar    1  UNL1       -0.0003
     23 C         141.6270  139.9031  160.2987 C.ar    1  UNL1       -0.0032
     24 C         142.6112  140.7468  161.0533 C.ar    1  UNL1       -0.0088
     25 C         142.7673  142.2330  161.1832 C.3     1  UNL1        0.0992
@<TRIPOS>BOND
     1    13    14    3
     2    14     7    1
     3     7     8   ar
     4     8     9   ar
     5     9    10   ar
     6    10    11   ar
     7    11     1    1
     8     1     2    1
     9     2     3    1
    10     3     4    1
    11     4    15    1
    12    15    16    1
    13    16    17    1
    14    17    18    1
    15    18    19    1
    16    19    20   ar
    17    20    21   ar
    18    21    22   ar
    19    22    23   ar
    20    23    24   ar
    21    24    25    1
    22     4     5   am
    23     5     6    2
    24    11    12   ar
    25    12     7   ar
    26     5     1   am
    27    25    17    1
    28    24    19   ar
@<TRIPOS>MOLECULE
*****
 25 28 0 0 0
SMALL
GASTEIGER

@<TRIPOS>ATOM
      1 N         143.2033  140.7275  166.0035 N.am    1  UNL1       -0.2413
      2 C         143.1956  139.5429  165.0834 C.3     1  UNL1        0.1212
      3 C         143.9000  139.9341  163.8181 C.3     1  UNL1        0.1169
      4 N         144.3430  141.3606  163.9564 N.am    1  UNL1       -0.2606
      5 C         143.9124  141.8509  165.3070 C.2     1  UNL1        0.3111
      6 O         144.1493  143.2236  165.8634 O.2     1  UNL1       -0.2520
      7 C         141.3712  142.0962  169.2469 C.ar    1  UNL1        0.0697
      8 C         141.4131  140.8838  170.1291 C.ar    1  UNL1        0.0104
      9 C         142.0518  139.6193  169.6360 C.ar    1  UNL1        0.0020
     10 C         142.6485  139.5671  168.2608 C.ar    1  UNL1        0.0150
     11 C         142.6066  140.7796  167.3787 C.ar    1  UNL1        0.0560
     12 C         141.9679  142.0441  167.8717 C.ar    1  UNL1        0.0252
     13 N         140.0939  144.6253  170.2330 N.1     1  UNL1       -0.1908
     14 C         140.7325  143.3608  169.7400 C.1     1  UNL1        0.1005
     15 C         145.0861  142.1569  162.9250 C.3     1  UNL1        0.1123
     16 C         144.3598  143.1750  162.0969 C.3     1  UNL1        0.0944
     17 N         142.8746  143.3332  162.2356 N.3     1  UNL1       -0.2637
     18 C         141.8332  142.4157  161.6668 C.3     1  UNL1        0.0992
     19 C         140.4850  142.9522  162.0471 C.ar    1  UNL1       -0.0088
     20 C         139.0948  142.4646  161.7653 C.ar    1  UNL1       -0.0032
     21 C         137.9127  143.2262  162.2874 C.ar    1  UNL1       -0.0003
     22 C         138.1209  144.4754  163.0913 C.ar    1  UNL1       -0.0003
     23 C         139.5112  144.9630  163.3731 C.ar    1  UNL1       -0.0032
     24 C         140.6932  144.2013  162.8510 C.ar    1  UNL1       -0.0088
     25 C         142.1700  144.4368  162.9675 C.3     1  UNL1        0.0992
@<TRIPOS>BOND
     1    13    14    3
     2    14     7    1
     3     7     8   ar
     4     8     9   ar
     5     9    10   ar
     6    10    11   ar
     7    11     1    1
     8     1     2    1
     9     2     3    1
    10     3     4    1
    11     4    15    1
    12    15    16    1
    13    16    17    1
    14    17    18    1
    15    18    19    1
    16    19    20   ar
    17    20    21   ar
    18    21    22   ar
    19    22    23   ar
    20    23    24   ar
    21    24    25    1
    22     4     5   am
    23     5     6    2
    24    11    12   ar
    25    12     7   ar
    26     5     1   am
    27    25    17    1
    28    24    19   ar
@<TRIPOS>MOLECULE
*****
 25 28 0 0 0
SMALL
GASTEIGER

@<TRIPOS>ATOM
      1 N         142.0272  139.3696  165.0487 N.am    1  UNL1       -0.2413
      2 C         142.3971  138.4194  163.9486 C.3     1  UNL1        0.1212
      3 C         143.7366  138.8298  163.4125 C.3     1  UNL1        0.1169
      4 N         144.1945  140.0337  164.1814 N.am    1  UNL1       -0.2606
      5 C         143.1380  140.3673  165.1926 C.2     1  UNL1        0.3111
      6 O         143.1842  141.4997  166.1752 O.2     1  UNL1       -0.2520
      7 C         139.4970  139.8435  168.0692 C.ar    1  UNL1        0.0697
      8 C         138.2484  139.2482  167.4891 C.ar    1  UNL1        0.0104
      9 C         138.2594  138.6933  166.0955 C.ar    1  UNL1        0.0020
     10 C         139.5190  138.7338  165.2820 C.ar    1  UNL1        0.0150
     11 C         140.7676  139.3291  165.8621 C.ar    1  UNL1        0.0560
     12 C         140.7566  139.8839  167.2557 C.ar    1  UNL1        0.0252
     13 N         139.4751  140.9532  170.8564 N.1     1  UNL1       -0.1908
     14 C         139.4860  140.3983  169.4628 C.1     1  UNL1        0.1005
     15 C         145.4827  140.7741  163.9752 C.3     1  UNL1        0.1123
     16 C         145.5451  141.9143  163.0026 C.3     1  UNL1        0.0944
     17 N         144.3137  142.7199  162.7114 N.3     1  UNL1       -0.2637
     18 C         143.4386  142.5862  161.5005 C.3     1  UNL1        0.0992
     19 C         142.3253  143.5843  161.6206 C.ar    1  UNL1       -0.0088
     20 C         141.1654  143.9067  160.7259 C.ar    1  UNL1       -0.0032
     21 C         140.1927  144.9797  161.1162 C.ar    1  UNL1       -0.0003
     22 C         140.3798  145.7303  162.4014 C.ar    1  UNL1       -0.0003
     23 C         141.5397  145.4079  163.2962 C.ar    1  UNL1       -0.0032
     24 C         142.5125  144.3349  162.9058 C.ar    1  UNL1       -0.0088
     25 C         143.7414  143.8007  163.5799 C.3     1  UNL1        0.0992
@<TRIPOS>BOND
     1    13    14    3
     2    14     7    1
     3     7     8   ar
     4     8     9   ar
     5     9    10   ar
     6    10    11   ar
     7    11     1    1
     8     1     2    1
     9     2     3    1
    10     3     4    1
    11     4    15    1
    12    15    16    1
    13    16    17    1
    14    17    18    1
    15    18    19    1
    16    19    20   ar
    17    20    21   ar
    18    21    22   ar
    19    22    23   ar
    20    23    24   ar
    21    24    25    1
    22     4     5   am
    23     5     6    2
    24    11    12   ar
    25    12     7   ar
    26     5     1   am
    27    25    17    1
    28    24    19   ar
@<TRIPOS>MOLECULE
*****
 25 28 0 0 0
SMALL
GASTEIGER

@<TRIPOS>ATOM
      1 N         140.3095  139.7294  166.9853 N.am    1  UNL1       -0.2413
      2 C         138.9161  139.2824  166.6557 C.3     1  UNL1        0.1212
      3 C         138.9341  138.6851  165.2798 C.3     1  UNL1        0.1169
      4 N         140.3387  138.7630  164.7591 N.am    1  UNL1       -0.2606
      5 C         141.1887  139.4083  165.8131 C.2     1  UNL1        0.3111
      6 O         142.6597  139.6842  165.7127 O.2     1  UNL1       -0.2520
      7 C         140.7529  142.4386  169.8511 C.ar    1  UNL1        0.0697
      8 C         141.6214  141.6893  170.8176 C.ar    1  UNL1        0.0104
      9 C         142.0526  140.2867  170.5067 C.ar    1  UNL1        0.0020
     10 C         141.6153  139.6333  169.2292 C.ar    1  UNL1        0.0150
     11 C         140.7468  140.3826  168.2627 C.ar    1  UNL1        0.0560
     12 C         140.3156  141.7853  168.5736 C.ar    1  UNL1        0.0252
     13 N         139.8906  145.2439  170.4729 N.1     1  UNL1       -0.1908
     14 C         140.3217  143.8413  170.1620 C.1     1  UNL1        0.1005
     15 C         140.8104  138.2802  163.4195 C.3     1  UNL1        0.1123
     16 C         141.0335  139.2593  162.3053 C.3     1  UNL1        0.0944
     17 N         141.4791  140.6580  162.6140 N.3     1  UNL1       -0.2637
     18 C         140.5938  141.7919  163.0389 C.3     1  UNL1        0.0992
     19 C         141.4558  143.0030  163.2395 C.ar    1  UNL1       -0.0088
     20 C         141.1326  144.4069  163.6573 C.ar    1  UNL1       -0.0032
     21 C         142.2276  145.4254  163.7740 C.ar    1  UNL1       -0.0003
     22 C         143.6456  145.0401  163.4730 C.ar    1  UNL1       -0.0003
     23 C         143.9687  143.6362  163.0552 C.ar    1  UNL1       -0.0032
     24 C         142.8738  142.6176  162.9384 C.ar    1  UNL1       -0.0088
     25 C         142.8882  141.1684  162.5519 C.3     1  UNL1        0.0992
@<TRIPOS>BOND
     1    13    14    3
     2    14     7    1
     3     7     8   ar
     4     8     9   ar
     5     9    10   ar
     6    10    11   ar
     7    11     1    1
     8     1     2    1
     9     2     3    1
    10     3     4    1
    11     4    15    1
    12    15    16    1
    13    16    17    1
    14    17    18    1
    15    18    19    1
    16    19    20   ar
    17    20    21   ar
    18    21    22   ar
    19    22    23   ar
    20    23    24   ar
    21    24    25    1
    22     4     5   am
    23     5     6    2
    24    11    12   ar
    25    12     7   ar
    26     5     1   am
    27    25    17    1
    28    24    19   ar
@<TRIPOS>MOLECULE
*****
 25 28 0 0 0
SMALL
GASTEIGER

@<TRIPOS>ATOM
      1 N         142.6032  140.3260  166.9189 N.am    1  UNL1       -0.2413
      2 C         143.0160  138.8840  166.9102 C.3     1  UNL1        0.1212
      3 C         143.8847  138.6576  165.7084 C.3     1  UNL1        0.1169
      4 N         144.0086  139.9599  164.9743 N.am    1  UNL1       -0.2606
      5 C         143.2166  140.9909  165.7224 C.2     1  UNL1        0.3111
      6 O         143.0647  142.4336  165.3410 O.2     1  UNL1       -0.2520
      7 C         139.6821  140.9112  169.5407 C.ar    1  UNL1        0.0697
      8 C         139.9840  142.3088  169.9942 C.ar    1  UNL1        0.0104
      9 C         141.1590  143.0454  169.4226 C.ar    1  UNL1        0.0020
     10 C         142.0321  142.3845  168.3974 C.ar    1  UNL1        0.0150
     11 C         141.7302  140.9869  167.9439 C.ar    1  UNL1        0.0560
     12 C         140.5552  140.2503  168.5156 C.ar    1  UNL1        0.0252
     13 N         137.3321  139.4380  170.6841 N.1     1  UNL1       -0.1908
     14 C         138.5071  140.1746  170.1124 C.1     1  UNL1        0.1005
     15 C         144.7877  140.1905  163.7134 C.3     1  UNL1        0.1123
     16 C         144.1792  139.8559  162.3839 C.3     1  UNL1        0.0944
     17 N         142.6912  139.7190  162.2533 N.3     1  UNL1       -0.2637
     18 C         141.7145  140.8436  162.0763 C.3     1  UNL1        0.0992
     19 C         140.3382  140.2532  161.9903 C.ar    1  UNL1       -0.0088
     20 C         138.9865  140.8794  161.8153 C.ar    1  UNL1       -0.0032
     21 C         137.7610  140.0161  161.7641 C.ar    1  UNL1       -0.0003
     22 C         137.8871  138.5266  161.8879 C.ar    1  UNL1       -0.0003
     23 C         139.2388  137.9003  162.0630 C.ar    1  UNL1       -0.0032
     24 C         140.4644  138.7636  162.1142 C.ar    1  UNL1       -0.0088
     25 C         141.9186  138.4335  162.2767 C.3     1  UNL1        0.0992
@<TRIPOS>BOND
     1    13    14    3
     2    14     7    1
     3     7     8   ar
     4     8     9   ar
     5     9    10   ar
     6    10    11   ar
     7    11     1    1
     8     1     2    1
     9     2     3    1
    10     3     4    1
    11     4    15    1
    12    15    16    1
    13    16    17    1
    14    17    18    1
    15    18    19    1
    16    19    20   ar
    17    20    21   ar
    18    21    22   ar
    19    22    23   ar
    20    23    24   ar
    21    24    25    1
    22     4     5   am
    23     5     6    2
    24    11    12   ar
    25    12     7   ar
    26     5     1   am
    27    25    17    1
    28    24    19   ar
