@<TRIPOS>MOLECULE
*****
 37 41 0 0 0
SMALL
GASTEIGER

@<TRIPOS>ATOM
      1 C         137.7931  140.9879  161.8554 C.3     1  UNL1        0.2588
      2 N         138.7495  143.1942  160.8718 N.am    1  UNL1       -0.2651
      3 C         138.6357  141.6989  160.8382 C.2     1  UNL1        0.2689
      4 O         139.3644  140.9147  159.7876 O.2     1  UNL1       -0.2708
      5 H         138.2712  143.7090  161.5614 H       1  UNL1        0.1564
      6 C         142.1196  146.0385  156.8034 C.3     1  UNL1        0.0538
      7 C         141.2771  145.3275  157.8205 C.ar    1  UNL1        0.0786
      8 C         140.0359  144.6024  157.3916 C.ar    1  UNL1        0.1150
      9 N         139.1934  143.8913  158.4087 N.ar    1  UNL1       -0.2262
     10 C         139.5920  143.9053  159.8547 C.ar    1  UNL1        0.1536
     11 C         140.8330  144.6304  160.2836 C.ar    1  UNL1        0.1328
     12 N         141.6756  145.3415  159.2665 N.ar    1  UNL1       -0.2436
     13 C         137.6208  139.4998  161.7785 C.3     1  UNL1        0.1261
     14 N         138.7046  138.5923  162.2802 N.3     1  UNL1       -0.2650
     15 C         140.1536  138.3876  161.9508 C.3     1  UNL1        0.1033
     16 C         140.2373  137.3089  162.9898 C.3     1  UNL1        0.1423
     17 O         141.3212  136.4014  163.4915 O.3     1  UNL1       -0.3816
     18 C         138.7884  137.5137  163.3192 C.3     1  UNL1        0.1033
     19 H         142.1434  136.5826  163.0097 H       1  UNL1        0.2105
     20 O         137.1229  141.7650  162.9495 O.3     1  UNL1       -0.4529
     21 C         137.9500  142.4949  163.9660 C.ar    1  UNL1        0.2312
     22 N         138.0246  143.9927  163.9366 N.ar    1  UNL1       -0.1892
     23 C         138.8517  144.7225  164.9530 C.ar    1  UNL1        0.2029
     24 N         139.6042  143.9545  165.9989 N.ar    1  UNL1       -0.2046
     25 C         139.5296  142.4567  166.0284 C.ar    1  UNL1        0.1715
     26 C         138.7025  141.7269  165.0119 C.ar    1  UNL1        0.1098
     27 C         138.8192  140.2571  165.2882 C.ar    1  UNL1        0.1283
     28 N         139.7183  140.0786  166.4755 N.ar    1  UNL1       -0.1619
     29 N         140.1574  141.4380  166.9329 N.ar    1  UNL1       -0.2103
     30 C         141.0650  141.7279  168.0915 C.ar    1  UNL1        0.1054
     31 C         140.5600  141.5774  169.4958 C.ar    1  UNL1        0.0762
     32 CL        139.1473  141.1370  169.7417 Cl      1  UNL1       -0.0806
     33 C         141.4675  141.8673  170.6544 C.ar    1  UNL1        0.0130
     34 C         142.8802  142.3077  170.4086 C.ar    1  UNL1        0.0018
     35 C         143.3852  142.4582  169.0043 C.ar    1  UNL1        0.0130
     36 C         142.4777  142.1683  167.8457 C.ar    1  UNL1        0.0762
     37 CL        142.9828  142.3188  166.4414 Cl      1  UNL1       -0.0806
@<TRIPOS>BOND
     1     6     7    1
     2     7     8   ar
     3     8     9   ar
     4     9    10   ar
     5    10     2    1
     6     2     3   am
     7     3     4    2
     8     3     1    1
     9     1    13    1
    10    13    14    1
    11    14    15    1
    12    15    16    1
    13    16    17    1
    14    16    18    1
    15     1    20    1
    16    20    21    1
    17    21    22   ar
    18    22    23   ar
    19    23    24   ar
    20    24    25   ar
    21    25    26   ar
    22    26    27   ar
    23    27    28   ar
    24    28    29   ar
    25    29    30    1
    26    30    31   ar
    27    31    32    1
    28    31    33   ar
    29    33    34   ar
    30    34    35   ar
    31    35    36   ar
    32    36    37    1
    33    10    11   ar
    34    11    12   ar
    35    12     7   ar
    36    18    14    1
    37    26    21   ar
    38    36    30   ar
    39    29    25   ar
    40     2     5    1
    41    17    19    1
@<TRIPOS>MOLECULE
*****
 37 41 0 0 0
SMALL
GASTEIGER

@<TRIPOS>ATOM
      1 C         143.8291  142.7032  161.4249 C.3     1  UNL1        0.2588
      2 N         142.2306  144.2736  160.1101 N.am    1  UNL1       -0.2651
      3 C         143.1867  143.1181  160.1344 C.2     1  UNL1        0.2689
      4 O         143.5004  142.3774  158.8684 O.2     1  UNL1       -0.2708
      5 H         142.0247  144.7597  160.9411 H       1  UNL1        0.1564
      6 C         139.6610  145.9332  154.9485 C.3     1  UNL1        0.0538
      7 C         140.3034  145.5183  156.2388 C.ar    1  UNL1        0.0786
      8 C         141.6347  146.0875  156.6310 C.ar    1  UNL1        0.1150
      9 N         142.2771  145.6726  157.9214 N.ar    1  UNL1       -0.2262
     10 C         141.5882  144.6885  158.8197 C.ar    1  UNL1        0.1536
     11 C         140.2570  144.1192  158.4276 C.ar    1  UNL1        0.1328
     12 N         139.6146  144.5341  157.1372 N.ar    1  UNL1       -0.2436
     13 C         144.5052  141.3684  161.5311 C.3     1  UNL1        0.1261
     14 N         143.6855  140.1241  161.7037 N.3     1  UNL1       -0.2650
     15 C         142.2395  139.8364  161.9807 C.3     1  UNL1        0.1033
     16 C         142.5262  138.3644  161.9479 C.3     1  UNL1        0.1423
     17 O         141.7065  137.1202  162.1206 O.3     1  UNL1       -0.3816
     18 C         143.9720  138.6521  161.6710 C.3     1  UNL1        0.1033
     19 H         140.7829  137.3625  162.2913 H       1  UNL1        0.2105
     20 O         143.7954  143.6231  162.6092 O.3     1  UNL1       -0.4529
     21 C         142.6169  143.6082  163.5372 C.ar    1  UNL1        0.2312
     22 N         141.4860  144.5713  163.3288 N.ar    1  UNL1       -0.1892
     23 C         140.3076  144.5564  164.2567 C.ar    1  UNL1        0.2029
     24 N         140.2601  143.5784  165.3930 N.ar    1  UNL1       -0.2046
     25 C         141.3910  142.6153  165.6014 C.ar    1  UNL1        0.1715
     26 C         142.5694  142.6302  164.6735 C.ar    1  UNL1        0.1098
     27 C         143.5286  141.5690  165.1251 C.ar    1  UNL1        0.1283
     28 N         142.9429  140.8982  166.3322 N.ar    1  UNL1       -0.1619
     29 N         141.6218  141.5449  166.6266 N.ar    1  UNL1       -0.2103
     30 C         140.6943  141.1844  167.7490 C.ar    1  UNL1        0.1054
     31 C         139.6739  140.1013  167.5603 C.ar    1  UNL1        0.0762
     32 CL        139.5809  139.3787  166.2491 Cl      1  UNL1       -0.0806
     33 C         138.7464  139.7409  168.6827 C.ar    1  UNL1        0.0130
     34 C         138.8394  140.4634  169.9939 C.ar    1  UNL1        0.0018
     35 C         139.8598  141.5465  170.1826 C.ar    1  UNL1        0.0130
     36 C         140.7873  141.9070  169.0602 C.ar    1  UNL1        0.0762
     37 CL        141.8077  142.9901  169.2490 Cl      1  UNL1       -0.0806
@<TRIPOS>BOND
     1     6     7    1
     2     7     8   ar
     3     8     9   ar
     4     9    10   ar
     5    10     2    1
     6     2     3   am
     7     3     4    2
     8     3     1    1
     9     1    13    1
    10    13    14    1
    11    14    15    1
    12    15    16    1
    13    16    17    1
    14    16    18    1
    15     1    20    1
    16    20    21    1
    17    21    22   ar
    18    22    23   ar
    19    23    24   ar
    20    24    25   ar
    21    25    26   ar
    22    26    27   ar
    23    27    28   ar
    24    28    29   ar
    25    29    30    1
    26    30    31   ar
    27    31    32    1
    28    31    33   ar
    29    33    34   ar
    30    34    35   ar
    31    35    36   ar
    32    36    37    1
    33    10    11   ar
    34    11    12   ar
    35    12     7   ar
    36    18    14    1
    37    26    21   ar
    38    36    30   ar
    39    29    25   ar
    40     2     5    1
    41    17    19    1
@<TRIPOS>MOLECULE
*****
 37 41 0 0 0
SMALL
GASTEIGER

@<TRIPOS>ATOM
      1 C         139.0936  138.4522  162.4495 C.3     1  UNL1        0.2588
      2 N         140.1291  139.7424  164.4528 N.am    1  UNL1       -0.2651
      3 C         139.4219  138.5357  163.9108 C.2     1  UNL1        0.2689
      4 O         139.0431  137.4126  164.8300 O.2     1  UNL1       -0.2708
      5 H         140.3777  140.4796  163.8495 H       1  UNL1        0.1564
      6 C         141.4425  140.0766  170.2977 C.3     1  UNL1        0.0538
      7 C         141.1141  139.9931  168.8365 C.ar    1  UNL1        0.0786
      8 C         139.7098  140.2356  168.3683 C.ar    1  UNL1        0.1150
      9 N         139.3815  140.1520  166.9070 N.ar    1  UNL1       -0.2262
     10 C         140.4574  139.8260  165.9140 C.ar    1  UNL1        0.1536
     11 C         141.8617  139.5835  166.3822 C.ar    1  UNL1        0.1328
     12 N         142.1901  139.6671  167.8435 N.ar    1  UNL1       -0.2436
     13 C         137.9252  139.2145  161.8986 C.3     1  UNL1        0.1261
     14 N         137.8445  140.7008  162.0842 N.3     1  UNL1       -0.2650
     15 C         138.2696  141.8946  161.2815 C.3     1  UNL1        0.1033
     16 C         137.7305  142.8027  162.3467 C.3     1  UNL1        0.1423
     17 O         137.6498  144.2890  162.5324 O.3     1  UNL1       -0.3816
     18 C         137.3054  141.6090  163.1494 C.3     1  UNL1        0.1033
     19 H         138.0481  144.7325  161.7671 H       1  UNL1        0.2105
     20 O         139.9338  137.6063  161.5392 O.3     1  UNL1       -0.4529
     21 C         141.3257  138.0395  161.1856 C.ar    1  UNL1        0.2312
     22 N         142.4696  137.7042  162.0961 N.ar    1  UNL1       -0.1892
     23 C         143.8615  138.1373  161.7425 C.ar    1  UNL1        0.2029
     24 N         144.1094  138.9057  160.4783 N.ar    1  UNL1       -0.2046
     25 C         142.9656  139.2410  159.5678 C.ar    1  UNL1        0.1715
     26 C         141.5737  138.8079  159.9215 C.ar    1  UNL1        0.1098
     27 C         140.6515  139.2801  158.8366 C.ar    1  UNL1        0.1283
     28 N         141.4736  140.0050  157.8125 N.ar    1  UNL1       -0.1619
     29 N         142.9037  139.9808  158.2645 N.ar    1  UNL1       -0.2103
     30 C         144.0676  140.5897  157.5402 C.ar    1  UNL1        0.1054
     31 C         144.7034  141.8437  158.0627 C.ar    1  UNL1        0.0762
     32 CL        144.1753  142.4890  159.3096 Cl      1  UNL1       -0.0806
     33 C         145.8674  142.4525  157.3384 C.ar    1  UNL1        0.0130
     34 C         146.3955  141.8073  156.0915 C.ar    1  UNL1        0.0018
     35 C         145.7597  140.5532  155.5690 C.ar    1  UNL1        0.0130
     36 C         144.5958  139.9444  156.2933 C.ar    1  UNL1        0.0762
     37 CL        143.9600  138.6904  155.7707 Cl      1  UNL1       -0.0806
@<TRIPOS>BOND
     1     6     7    1
     2     7     8   ar
     3     8     9   ar
     4     9    10   ar
     5    10     2    1
     6     2     3   am
     7     3     4    2
     8     3     1    1
     9     1    13    1
    10    13    14    1
    11    14    15    1
    12    15    16    1
    13    16    17    1
    14    16    18    1
    15     1    20    1
    16    20    21    1
    17    21    22   ar
    18    22    23   ar
    19    23    24   ar
    20    24    25   ar
    21    25    26   ar
    22    26    27   ar
    23    27    28   ar
    24    28    29   ar
    25    29    30    1
    26    30    31   ar
    27    31    32    1
    28    31    33   ar
    29    33    34   ar
    30    34    35   ar
    31    35    36   ar
    32    36    37    1
    33    10    11   ar
    34    11    12   ar
    35    12     7   ar
    36    18    14    1
    37    26    21   ar
    38    36    30   ar
    39    29    25   ar
    40     2     5    1
    41    17    19    1
@<TRIPOS>MOLECULE
*****
 37 41 0 0 0
SMALL
GASTEIGER

@<TRIPOS>ATOM
      1 C         141.2429  144.3904  159.4026 C.3     1  UNL1        0.2588
      2 N         139.9897  145.4557  157.3915 N.am    1  UNL1       -0.2651
      3 C         141.2042  145.3705  158.2677 C.2     1  UNL1        0.2689
      4 O         142.3799  146.2653  158.0090 O.2     1  UNL1       -0.2708
      5 H         139.2180  144.8684  157.5613 H       1  UNL1        0.1564
      6 C         139.8347  149.3758  152.8518 C.3     1  UNL1        0.0538
      7 C         139.8734  148.3958  153.9867 C.ar    1  UNL1        0.0786
      8 C         139.0889  148.6643  155.2367 C.ar    1  UNL1        0.1150
      9 N         139.1277  147.6843  156.3716 N.ar    1  UNL1       -0.2262
     10 C         139.9509  146.4357  156.2566 C.ar    1  UNL1        0.1536
     11 C         140.7354  146.1671  155.0066 C.ar    1  UNL1        0.1328
     12 N         140.6967  147.1472  153.8717 N.ar    1  UNL1       -0.2436
     13 C         141.2416  142.9170  159.1216 C.3     1  UNL1        0.1261
     14 N         139.9791  142.2391  158.6785 N.3     1  UNL1       -0.2650
     15 C         139.6580  141.0468  157.8267 C.3     1  UNL1        0.1033
     16 C         138.1936  141.2803  158.0519 C.3     1  UNL1        0.1423
     17 O         136.9310  140.6023  157.6088 O.3     1  UNL1       -0.3816
     18 C         138.5146  142.4725  158.9036 C.3     1  UNL1        0.1033
     19 H         137.1518  139.8415  157.0490 H       1  UNL1        0.2105
     20 O         141.2828  144.8838  160.8186 O.3     1  UNL1       -0.4529
     21 C         140.2921  144.3690  161.8204 C.ar    1  UNL1        0.2312
     22 N         138.9371  145.0030  161.9292 N.ar    1  UNL1       -0.1892
     23 C         137.9465  144.4882  162.9310 C.ar    1  UNL1        0.2029
     24 N         138.3109  143.3395  163.8241 N.ar    1  UNL1       -0.2046
     25 C         139.6660  142.7055  163.7153 C.ar    1  UNL1        0.1715
     26 C         140.6566  143.2203  162.7135 C.ar    1  UNL1        0.1098
     27 C         141.9070  142.4005  162.8345 C.ar    1  UNL1        0.1283
     28 N         141.6891  141.3791  163.9112 N.ar    1  UNL1       -0.1619
     29 N         140.3041  141.5676  164.4555 N.ar    1  UNL1       -0.2103
     30 C         139.6687  140.7599  165.5482 C.ar    1  UNL1        0.1054
     31 C         140.0778  140.9757  166.9751 C.ar    1  UNL1        0.0762
     32 CL        141.1223  141.9991  167.3094 Cl      1  UNL1       -0.0806
     33 C         139.4424  140.1680  168.0678 C.ar    1  UNL1        0.0130
     34 C         138.3979  139.1446  167.7337 C.ar    1  UNL1        0.0018
     35 C         137.9889  138.9289  166.3068 C.ar    1  UNL1        0.0130
     36 C         138.6242  139.7365  165.2140 C.ar    1  UNL1        0.0762
     37 CL        138.2151  139.5208  163.7872 Cl      1  UNL1       -0.0806
@<TRIPOS>BOND
     1     6     7    1
     2     7     8   ar
     3     8     9   ar
     4     9    10   ar
     5    10     2    1
     6     2     3   am
     7     3     4    2
     8     3     1    1
     9     1    13    1
    10    13    14    1
    11    14    15    1
    12    15    16    1
    13    16    17    1
    14    16    18    1
    15     1    20    1
    16    20    21    1
    17    21    22   ar
    18    22    23   ar
    19    23    24   ar
    20    24    25   ar
    21    25    26   ar
    22    26    27   ar
    23    27    28   ar
    24    28    29   ar
    25    29    30    1
    26    30    31   ar
    27    31    32    1
    28    31    33   ar
    29    33    34   ar
    30    34    35   ar
    31    35    36   ar
    32    36    37    1
    33    10    11   ar
    34    11    12   ar
    35    12     7   ar
    36    18    14    1
    37    26    21   ar
    38    36    30   ar
    39    29    25   ar
    40     2     5    1
    41    17    19    1
@<TRIPOS>MOLECULE
*****
 37 41 0 0 0
SMALL
GASTEIGER

@<TRIPOS>ATOM
      1 C         137.6905  140.8339  161.7099 C.3     1  UNL1        0.2588
      2 N         138.4243  141.0915  159.2309 N.am    1  UNL1       -0.2651
      3 C         138.0717  141.7081  160.5520 C.2     1  UNL1        0.2689
      4 O         138.1002  143.1989  160.7154 O.2     1  UNL1       -0.2708
      5 H         138.4056  140.1130  159.1237 H       1  UNL1        0.1564
      6 C         139.9490  144.5881  154.5997 C.3     1  UNL1        0.0538
      7 C         139.5678  143.7140  155.7575 C.ar    1  UNL1        0.0786
      8 C         140.6331  143.1101  156.6239 C.ar    1  UNL1        0.1150
      9 N         140.2519  142.2359  157.7817 N.ar    1  UNL1       -0.2262
     10 C         138.8055  141.9656  158.0731 C.ar    1  UNL1        0.1536
     11 C         137.7403  142.5695  157.2068 C.ar    1  UNL1        0.1328
     12 N         138.1214  143.4437  156.0489 N.ar    1  UNL1       -0.2436
     13 C         137.8609  139.3466  161.6147 C.3     1  UNL1        0.1261
     14 N         139.2328  138.7433  161.6781 N.3     1  UNL1       -0.2650
     15 C         140.4101  138.6857  160.7504 C.3     1  UNL1        0.1033
     16 C         141.1728  137.8901  161.7679 C.3     1  UNL1        0.1423
     17 O         142.5447  137.2868  161.8313 O.3     1  UNL1       -0.3816
     18 C         139.9956  137.9478  162.6955 C.3     1  UNL1        0.1033
     19 H         143.0191  137.4749  161.0064 H       1  UNL1        0.2105
     20 O         137.1389  141.4469  162.9628 O.3     1  UNL1       -0.4529
     21 C         138.0709  141.9400  164.0297 C.ar    1  UNL1        0.2312
     22 N         138.5535  143.3600  164.0063 N.ar    1  UNL1       -0.1892
     23 C         139.4855  143.8531  165.0732 C.ar    1  UNL1        0.2029
     24 N         139.9349  142.9261  166.1635 N.ar    1  UNL1       -0.2046
     25 C         139.4523  141.5060  166.1869 C.ar    1  UNL1        0.1715
     26 C         138.5203  141.0130  165.1200 C.ar    1  UNL1        0.1098
     27 C         138.2140  139.5719  165.4018 C.ar    1  UNL1        0.1283
     28 N         138.9567  139.1743  166.6429 N.ar    1  UNL1       -0.1619
     29 N         139.7220  140.3697  167.1281 N.ar    1  UNL1       -0.2103
     30 C         140.6024  140.4198  168.3415 C.ar    1  UNL1        0.1054
     31 C         139.9934  140.3893  169.7119 C.ar    1  UNL1        0.0762
     32 CL        138.5038  140.3086  169.8690 Cl      1  UNL1       -0.0806
     33 C         140.8738  140.4395  170.9253 C.ar    1  UNL1        0.0130
     34 C         142.3634  140.5202  170.7682 C.ar    1  UNL1        0.0018
     35 C         142.9725  140.5508  169.3978 C.ar    1  UNL1        0.0130
     36 C         142.0920  140.5006  168.1845 C.ar    1  UNL1        0.0762
     37 CL        142.7011  140.5311  166.8141 Cl      1  UNL1       -0.0806
@<TRIPOS>BOND
     1     6     7    1
     2     7     8   ar
     3     8     9   ar
     4     9    10   ar
     5    10     2    1
     6     2     3   am
     7     3     4    2
     8     3     1    1
     9     1    13    1
    10    13    14    1
    11    14    15    1
    12    15    16    1
    13    16    17    1
    14    16    18    1
    15     1    20    1
    16    20    21    1
    17    21    22   ar
    18    22    23   ar
    19    23    24   ar
    20    24    25   ar
    21    25    26   ar
    22    26    27   ar
    23    27    28   ar
    24    28    29   ar
    25    29    30    1
    26    30    31   ar
    27    31    32    1
    28    31    33   ar
    29    33    34   ar
    30    34    35   ar
    31    35    36   ar
    32    36    37    1
    33    10    11   ar
    34    11    12   ar
    35    12     7   ar
    36    18    14    1
    37    26    21   ar
    38    36    30   ar
    39    29    25   ar
    40     2     5    1
    41    17    19    1
@<TRIPOS>MOLECULE
*****
 37 41 0 0 0
SMALL
GASTEIGER

@<TRIPOS>ATOM
      1 C         140.9620  144.1370  159.3245 C.3     1  UNL1        0.2588
      2 N         139.8428  145.2935  157.2848 N.am    1  UNL1       -0.2651
      3 C         141.0134  145.1398  158.2100 C.2     1  UNL1        0.2689
      4 O         142.2354  145.9889  158.0209 O.2     1  UNL1       -0.2708
      5 H         139.0408  144.7363  157.4090 H       1  UNL1        0.1564
      6 C         140.0483  149.3045  152.8273 C.3     1  UNL1        0.0538
      7 C         139.9969  148.3018  153.9417 C.ar    1  UNL1        0.0786
      8 C         140.8272  147.0546  153.8673 C.ar    1  UNL1        0.1150
      9 N         140.7758  146.0519  154.9817 N.ar    1  UNL1       -0.2262
     10 C         139.8942  146.2962  156.1704 C.ar    1  UNL1        0.1536
     11 C         139.0640  147.5433  156.2448 C.ar    1  UNL1        0.1328
     12 N         139.1154  148.5461  155.1304 N.ar    1  UNL1       -0.2436
     13 C         139.6592  143.8384  160.0051 C.3     1  UNL1        0.1261
     14 N         139.4450  144.2541  161.4304 N.3     1  UNL1       -0.2650
     15 C         139.8700  145.4224  162.2698 C.3     1  UNL1        0.1033
     16 C         139.1421  144.8420  163.4460 C.3     1  UNL1        0.1423
     17 O         138.9280  145.2577  164.8712 O.3     1  UNL1       -0.3816
     18 C         138.7171  143.6738  162.6066 C.3     1  UNL1        0.1033
     19 H         139.3788  146.1011  165.0332 H       1  UNL1        0.2105
     20 O         142.2135  143.4329  159.7581 O.3     1  UNL1       -0.4529
     21 C         142.5743  143.3725  161.2129 C.ar    1  UNL1        0.2312
     22 N         143.4289  144.4459  161.8189 N.ar    1  UNL1       -0.1892
     23 C         143.7896  144.3854  163.2736 C.ar    1  UNL1        0.2029
     24 N         143.2957  143.2514  164.1223 N.ar    1  UNL1       -0.2046
     25 C         142.4411  142.1780  163.5163 C.ar    1  UNL1        0.1715
     26 C         142.0804  142.2385  162.0616 C.ar    1  UNL1        0.1098
     27 C         141.2284  141.0451  161.7452 C.ar    1  UNL1        0.1283
     28 N         141.0626  140.2471  163.0044 N.ar    1  UNL1       -0.1619
     29 N         141.8121  140.9472  164.0990 N.ar    1  UNL1       -0.2103
     30 C         141.9146  140.4959  165.5258 C.ar    1  UNL1        0.1054
     31 C         142.9506  139.4855  165.9202 C.ar    1  UNL1        0.0762
     32 CL        143.8842  138.9263  164.8878 Cl      1  UNL1       -0.0806
     33 C         143.0531  139.0341  167.3470 C.ar    1  UNL1        0.0130
     34 C         142.1196  139.5932  168.3794 C.ar    1  UNL1        0.0018
     35 C         141.0835  140.6036  167.9850 C.ar    1  UNL1        0.0130
     36 C         140.9810  141.0550  166.5582 C.ar    1  UNL1        0.0762
     37 CL        139.9450  142.0654  166.1638 Cl      1  UNL1       -0.0806
@<TRIPOS>BOND
     1     6     7    1
     2     7     8   ar
     3     8     9   ar
     4     9    10   ar
     5    10     2    1
     6     2     3   am
     7     3     4    2
     8     3     1    1
     9     1    13    1
    10    13    14    1
    11    14    15    1
    12    15    16    1
    13    16    17    1
    14    16    18    1
    15     1    20    1
    16    20    21    1
    17    21    22   ar
    18    22    23   ar
    19    23    24   ar
    20    24    25   ar
    21    25    26   ar
    22    26    27   ar
    23    27    28   ar
    24    28    29   ar
    25    29    30    1
    26    30    31   ar
    27    31    32    1
    28    31    33   ar
    29    33    34   ar
    30    34    35   ar
    31    35    36   ar
    32    36    37    1
    33    10    11   ar
    34    11    12   ar
    35    12     7   ar
    36    18    14    1
    37    26    21   ar
    38    36    30   ar
    39    29    25   ar
    40     2     5    1
    41    17    19    1
@<TRIPOS>MOLECULE
*****
 37 41 0 0 0
SMALL
GASTEIGER

@<TRIPOS>ATOM
      1 C         143.4031  139.2730  161.3266 C.3     1  UNL1        0.2588
      2 N         142.4306  137.9435  159.3174 N.am    1  UNL1       -0.2651
      3 C         143.3341  139.0157  159.8504 C.2     1  UNL1        0.2689
      4 O         144.1686  139.8306  158.9072 O.2     1  UNL1       -0.2708
      5 H         141.8829  137.4087  159.9364 H       1  UNL1        0.1564
      6 C         142.1545  136.9143  153.4128 C.3     1  UNL1        0.0538
      7 C         142.2235  137.1716  154.8890 C.ar    1  UNL1        0.0786
      8 C         143.1550  136.3683  155.7476 C.ar    1  UNL1        0.1150
      9 N         143.2240  136.6256  157.2237 N.ar    1  UNL1       -0.2262
     10 C         142.3616  137.6862  157.8413 C.ar    1  UNL1        0.1536
     11 C         141.4302  138.4895  156.9827 C.ar    1  UNL1        0.1328
     12 N         141.3611  138.2322  155.5065 N.ar    1  UNL1       -0.2436
     13 C         144.5193  140.1000  161.8924 C.3     1  UNL1        0.1261
     14 N         144.3372  141.5768  162.0816 N.3     1  UNL1       -0.2650
     15 C         144.9599  142.6179  162.9640 C.3     1  UNL1        0.1033
     16 C         144.0797  143.6653  162.3492 C.3     1  UNL1        0.1423
     17 O         143.8976  145.1422  162.5384 O.3     1  UNL1       -0.3816
     18 C         143.4571  142.6244  161.4669 C.3     1  UNL1        0.1033
     19 H         144.5062  145.4577  163.2246 H       1  UNL1        0.2105
     20 O         142.3558  138.7034  162.2369 O.3     1  UNL1       -0.4529
     21 C         141.5877  139.6075  163.1549 C.ar    1  UNL1        0.2312
     22 N         140.5029  140.4867  162.6068 N.ar    1  UNL1       -0.1892
     23 C         139.7349  141.3908  163.5247 C.ar    1  UNL1        0.2029
     24 N         140.0516  141.4157  164.9907 N.ar    1  UNL1       -0.2046
     25 C         141.1363  140.5366  165.5388 C.ar    1  UNL1        0.1715
     26 C         141.9044  139.6325  164.6208 C.ar    1  UNL1        0.1098
     27 C         142.9113  138.8840  165.4430 C.ar    1  UNL1        0.1283
     28 N         142.7655  139.3256  166.8691 N.ar    1  UNL1       -0.1619
     29 N         141.6685  140.3469  166.9283 N.ar    1  UNL1       -0.2103
     30 C         141.1881  141.0544  168.1606 C.ar    1  UNL1        0.1054
     31 C         142.0471  142.0995  168.8085 C.ar    1  UNL1        0.0762
     32 CL        143.3867  142.4372  168.2240 Cl      1  UNL1       -0.0806
     33 C         141.5666  142.8070  170.0408 C.ar    1  UNL1        0.0130
     34 C         140.2271  142.4694  170.6253 C.ar    1  UNL1        0.0018
     35 C         139.3681  141.4243  169.9774 C.ar    1  UNL1        0.0130
     36 C         139.8485  140.7168  168.7451 C.ar    1  UNL1        0.0762
     37 CL        138.9894  139.6717  168.0973 Cl      1  UNL1       -0.0806
@<TRIPOS>BOND
     1     6     7    1
     2     7     8   ar
     3     8     9   ar
     4     9    10   ar
     5    10     2    1
     6     2     3   am
     7     3     4    2
     8     3     1    1
     9     1    13    1
    10    13    14    1
    11    14    15    1
    12    15    16    1
    13    16    17    1
    14    16    18    1
    15     1    20    1
    16    20    21    1
    17    21    22   ar
    18    22    23   ar
    19    23    24   ar
    20    24    25   ar
    21    25    26   ar
    22    26    27   ar
    23    27    28   ar
    24    28    29   ar
    25    29    30    1
    26    30    31   ar
    27    31    32    1
    28    31    33   ar
    29    33    34   ar
    30    34    35   ar
    31    35    36   ar
    32    36    37    1
    33    10    11   ar
    34    11    12   ar
    35    12     7   ar
    36    18    14    1
    37    26    21   ar
    38    36    30   ar
    39    29    25   ar
    40     2     5    1
    41    17    19    1
@<TRIPOS>MOLECULE
*****
 37 41 0 0 0
SMALL
GASTEIGER

@<TRIPOS>ATOM
      1 C         141.7155  138.2312  161.8996 C.3     1  UNL1        0.2588
      2 N         141.9790  140.8037  162.1505 N.am    1  UNL1       -0.2651
      3 C         141.1422  139.6128  161.7878 C.2     1  UNL1        0.2689
      4 O         139.7321  139.8036  161.3133 O.2     1  UNL1       -0.2708
      5 H         142.9045  140.6785  162.4619 H       1  UNL1        0.1564
      6 C         139.6860  146.3301  161.7033 C.3     1  UNL1        0.0538
      7 C         140.2592  144.9485  161.8151 C.ar    1  UNL1        0.0786
      8 C         140.9614  144.3307  160.6423 C.ar    1  UNL1        0.1150
      9 N         141.5347  142.9491  160.7541 N.ar    1  UNL1       -0.2262
     10 C         141.4058  142.1853  162.0387 C.ar    1  UNL1        0.1536
     11 C         140.7037  142.8031  163.2114 C.ar    1  UNL1        0.1328
     12 N         140.1304  144.1847  163.0996 N.ar    1  UNL1       -0.2436
     13 C         142.5982  137.6952  160.8118 C.3     1  UNL1        0.1261
     14 N         142.8810  138.5280  159.5967 N.3     1  UNL1       -0.2650
     15 C         143.7311  139.7300  159.3090 C.3     1  UNL1        0.1033
     16 C         143.2810  139.7058  157.8784 C.3     1  UNL1        0.1423
     17 O         143.5638  140.5387  156.6633 O.3     1  UNL1       -0.3816
     18 C         142.4310  138.5039  158.1660 C.3     1  UNL1        0.1033
     19 H         144.1852  141.2468  156.8941 H       1  UNL1        0.2105
     20 O         141.4060  137.3856  163.0993 O.3     1  UNL1       -0.4529
     21 C         140.6546  137.9729  164.2572 C.ar    1  UNL1        0.2312
     22 N         139.1898  137.6941  164.4197 N.ar    1  UNL1       -0.1892
     23 C         138.4385  138.2814  165.5775 C.ar    1  UNL1        0.2029
     24 N         139.1521  139.1475  166.5728 N.ar    1  UNL1       -0.2046
     25 C         140.6169  139.4264  166.4103 C.ar    1  UNL1        0.1715
     26 C         141.3682  138.8391  165.2525 C.ar    1  UNL1        0.1098
     27 C         142.7966  139.2864  165.3519 C.ar    1  UNL1        0.1283
     28 N         142.9280  140.1501  166.5712 N.ar    1  UNL1       -0.1619
     29 N         141.5809  140.2367  167.2253 N.ar    1  UNL1       -0.2103
     30 C         141.2549  140.9995  168.4750 C.ar    1  UNL1        0.1054
     31 C         141.5412  140.3962  169.8181 C.ar    1  UNL1        0.0762
     32 CL        142.1534  139.0300  169.9116 Cl      1  UNL1       -0.0806
     33 C         141.2153  141.1591  171.0679 C.ar    1  UNL1        0.0130
     34 C         140.6031  142.5253  170.9745 C.ar    1  UNL1        0.0018
     35 C         140.3168  143.1286  169.6313 C.ar    1  UNL1        0.0130
     36 C         140.6428  142.3657  168.3816 C.ar    1  UNL1        0.0762
     37 CL        140.3565  142.9691  167.0385 Cl      1  UNL1       -0.0806
@<TRIPOS>BOND
     1     6     7    1
     2     7     8   ar
     3     8     9   ar
     4     9    10   ar
     5    10     2    1
     6     2     3   am
     7     3     4    2
     8     3     1    1
     9     1    13    1
    10    13    14    1
    11    14    15    1
    12    15    16    1
    13    16    17    1
    14    16    18    1
    15     1    20    1
    16    20    21    1
    17    21    22   ar
    18    22    23   ar
    19    23    24   ar
    20    24    25   ar
    21    25    26   ar
    22    26    27   ar
    23    27    28   ar
    24    28    29   ar
    25    29    30    1
    26    30    31   ar
    27    31    32    1
    28    31    33   ar
    29    33    34   ar
    30    34    35   ar
    31    35    36   ar
    32    36    37    1
    33    10    11   ar
    34    11    12   ar
    35    12     7   ar
    36    18    14    1
    37    26    21   ar
    38    36    30   ar
    39    29    25   ar
    40     2     5    1
    41    17    19    1
@<TRIPOS>MOLECULE
*****
 37 41 0 0 0
SMALL
GASTEIGER

@<TRIPOS>ATOM
      1 C         138.2375  140.7030  159.2251 C.3     1  UNL1        0.2588
      2 N         139.2965  138.5246  158.2854 N.am    1  UNL1       -0.2651
      3 C         138.9181  139.9654  158.1102 C.2     1  UNL1        0.2689
      4 O         139.2201  140.6687  156.8202 O.2     1  UNL1       -0.2708
      5 H         139.0983  138.0630  159.1321 H       1  UNL1        0.1564
      6 C         142.0185  135.5741  153.8262 C.3     1  UNL1        0.0538
      7 C         141.3380  136.3117  154.9410 C.ar    1  UNL1        0.0786
      8 C         139.8500  136.4997  154.9174 C.ar    1  UNL1        0.1150
      9 N         139.1695  137.2374  156.0322 N.ar    1  UNL1       -0.2262
     10 C         139.9770  137.7869  157.1706 C.ar    1  UNL1        0.1536
     11 C         141.4649  137.5989  157.1942 C.ar    1  UNL1        0.1328
     12 N         142.1455  136.8613  156.0793 N.ar    1  UNL1       -0.2436
     13 C         138.1743  142.2015  159.2041 C.3     1  UNL1        0.1261
     14 N         139.3442  143.0084  159.6841 N.3     1  UNL1       -0.2650
     15 C         140.7031  143.3342  159.1389 C.3     1  UNL1        0.1033
     16 C         140.9986  144.1495  160.3628 C.3     1  UNL1        0.1423
     17 O         142.1685  144.9563  160.8428 O.3     1  UNL1       -0.3816
     18 C         139.6398  143.8237  160.9079 C.3     1  UNL1        0.1033
     19 H         142.8791  144.9192  160.1836 H       1  UNL1        0.2105
     20 O         137.6204  139.9421  160.3609 O.3     1  UNL1       -0.4529
     21 C         138.4551  139.5548  161.5455 C.ar    1  UNL1        0.2312
     22 N         139.3418  138.3470  161.4755 N.ar    1  UNL1       -0.1892
     23 C         140.1765  137.9598  162.6602 C.ar    1  UNL1        0.2029
     24 N         140.1245  138.7804  163.9147 N.ar    1  UNL1       -0.2046
     25 C         139.2377  139.9882  163.9847 C.ar    1  UNL1        0.1715
     26 C         138.4031  140.3754  162.8001 C.ar    1  UNL1        0.1098
     27 C         137.6296  141.6089  163.1613 C.ar    1  UNL1        0.1283
     28 N         137.9863  141.9840  164.5691 N.ar    1  UNL1       -0.1619
     29 N         138.9802  140.9823  165.0780 N.ar    1  UNL1       -0.2103
     30 C         139.6065  140.9759  166.4409 C.ar    1  UNL1        0.1054
     31 C         139.1826  139.9566  167.4564 C.ar    1  UNL1        0.0762
     32 CL        138.1323  138.9436  167.1090 Cl      1  UNL1       -0.0806
     33 C         139.8090  139.9502  168.8194 C.ar    1  UNL1        0.0130
     34 C         140.8593  140.9632  169.1669 C.ar    1  UNL1        0.0018
     35 C         141.2833  141.9824  168.1514 C.ar    1  UNL1        0.0130
     36 C         140.6569  141.9888  166.7884 C.ar    1  UNL1        0.0762
     37 CL        141.0809  143.0082  165.7730 Cl      1  UNL1       -0.0806
@<TRIPOS>BOND
     1     6     7    1
     2     7     8   ar
     3     8     9   ar
     4     9    10   ar
     5    10     2    1
     6     2     3   am
     7     3     4    2
     8     3     1    1
     9     1    13    1
    10    13    14    1
    11    14    15    1
    12    15    16    1
    13    16    17    1
    14    16    18    1
    15     1    20    1
    16    20    21    1
    17    21    22   ar
    18    22    23   ar
    19    23    24   ar
    20    24    25   ar
    21    25    26   ar
    22    26    27   ar
    23    27    28   ar
    24    28    29   ar
    25    29    30    1
    26    30    31   ar
    27    31    32    1
    28    31    33   ar
    29    33    34   ar
    30    34    35   ar
    31    35    36   ar
    32    36    37    1
    33    10    11   ar
    34    11    12   ar
    35    12     7   ar
    36    18    14    1
    37    26    21   ar
    38    36    30   ar
    39    29    25   ar
    40     2     5    1
    41    17    19    1
