@<TRIPOS>MOLECULE
*****
 31 34 0 0 0
SMALL
GASTEIGER

@<TRIPOS>ATOM
      1 C         140.0134  144.8524  157.7788 C.ar    1  UNL1        0.1535
      2 C         141.0079  145.5340  158.6712 C.ar    1  UNL1        0.0377
      3 C         141.0385  145.2199  160.1375 C.ar    1  UNL1        0.0239
      4 C         140.0747  144.2241  160.7116 C.ar    1  UNL1        0.1059
      5 N         139.0802  143.5425  159.8192 N.ar    1  UNL1       -0.1467
      6 N         139.0496  143.8566  158.3528 N.ar    1  UNL1       -0.1329
      7 C         140.1054  143.9099  162.1780 C.ar    1  UNL1        0.0531
      8 C         141.3742  143.4261  162.8150 C.ar    1  UNL1        0.0061
      9 C         141.4049  143.1120  164.2815 C.ar    1  UNL1        0.0194
     10 C         142.6738  142.6281  164.9184 C.ar    1  UNL1        0.0988
     11 N         142.7044  142.3140  166.3848 N.ar    1  UNL1       -0.2423
     12 C         141.4662  142.4838  167.2143 C.ar    1  UNL1        0.0989
     13 C         140.1973  142.9676  166.5773 C.ar    1  UNL1        0.0208
     14 C         140.1667  143.2817  165.1109 C.ar    1  UNL1        0.0061
     15 C         138.8978  143.7656  164.4738 C.ar    1  UNL1        0.0368
     16 C         138.8671  144.0797  163.0074 C.ar    1  UNL1        0.1351
     17 O         137.5982  144.5636  162.3704 O.3     1  UNL1       -0.5055
     18 H         136.8247  144.6696  162.8885 H       1  UNL1        0.2922
     19 C         140.1504  144.0668  155.3061 C.3     1  UNL1        0.1135
     20 N         139.9827  145.1665  156.3123 N.pl3   1  UNL1       -0.2916
     21 C         139.7844  146.5803  155.8522 C.3     1  UNL1        0.0768
     22 C         140.2986  147.0116  154.5108 C.3     1  UNL1        0.0342
     23 C         140.1003  148.4255  154.0506 C.3     1  UNL1        0.0435
     24 C         140.1561  149.6451  153.1793 C.3     1  UNL1        0.0158
     25 C         140.8323  147.8665  152.8667 C.3     1  UNL1        0.0158
     26 N         139.3876  149.4080  154.9319 N.3     1  UNL1       -0.3015
     27 C         138.8733  148.9767  156.2734 C.3     1  UNL1        0.0435
     28 C         138.2102  149.0446  157.6171 C.3     1  UNL1        0.0158
     29 C         138.4446  150.4141  156.2799 C.3     1  UNL1        0.0158
     30 C         139.0717  147.5629  156.7336 C.3     1  UNL1        0.0342
     31 H         138.5839  149.7482  154.4039 H       1  UNL1        0.1231
@<TRIPOS>BOND
     1    19    20    1
     2    20     1    1
     3     1     2   ar
     4     2     3   ar
     5     3     4   ar
     6     4     7    1
     7     7     8   ar
     8     8     9   ar
     9     9    10   ar
    10    10    11   ar
    11    11    12   ar
    12    12    13   ar
    13    13    14   ar
    14    14    15   ar
    15    15    16   ar
    16    16    17    1
    17     4     5   ar
    18     5     6   ar
    19    20    21    1
    20    21    22    1
    21    22    23    1
    22    23    24    1
    23    23    25    1
    24    23    26    1
    25    26    27    1
    26    27    28    1
    27    27    29    1
    28    27    30    1
    29     6     1   ar
    30    30    21    1
    31    16     7   ar
    32    14     9   ar
    33    17    18    1
    34    26    31    1
@<TRIPOS>MOLECULE
*****
 31 34 0 0 0
SMALL
GASTEIGER

@<TRIPOS>ATOM
      1 C         142.5658  136.9457  157.5021 C.ar    1  UNL1        0.1535
      2 C         141.2291  137.5380  157.1670 C.ar    1  UNL1        0.0377
      3 C         140.4803  138.3301  158.1974 C.ar    1  UNL1        0.0239
      4 C         141.0681  138.5299  159.5629 C.ar    1  UNL1        0.1059
      5 N         142.4048  137.9376  159.8980 N.ar    1  UNL1       -0.1467
      6 N         143.1537  137.1455  158.8676 N.ar    1  UNL1       -0.1329
      7 C         140.3192  139.3221  160.5933 C.ar    1  UNL1        0.0531
      8 C         139.8571  140.7141  160.2791 C.ar    1  UNL1        0.0061
      9 C         139.1081  141.5062  161.3095 C.ar    1  UNL1        0.0194
     10 C         138.6460  142.8982  160.9953 C.ar    1  UNL1        0.0988
     11 N         137.8971  143.6903  162.0257 N.ar    1  UNL1       -0.2423
     12 C         137.6103  143.0904  163.3702 C.ar    1  UNL1        0.0989
     13 C         138.0724  141.6984  163.6844 C.ar    1  UNL1        0.0208
     14 C         138.8213  140.9063  162.6541 C.ar    1  UNL1        0.0061
     15 C         139.2835  139.5142  162.9682 C.ar    1  UNL1        0.0368
     16 C         140.0324  138.7222  161.9378 C.ar    1  UNL1        0.1351
     17 O         140.4945  137.3301  162.2520 O.3     1  UNL1       -0.5055
     18 H         140.3154  136.9553  163.0919 H       1  UNL1        0.2922
     19 C         144.1480  136.8590  155.4432 C.3     1  UNL1        0.1135
     20 N         143.3148  136.1535  156.4717 N.pl3   1  UNL1       -0.2916
     21 C         143.2304  134.6559  156.4699 C.3     1  UNL1        0.0768
     22 C         142.1709  133.9654  155.6633 C.3     1  UNL1        0.0342
     23 C         142.0865  132.4678  155.6615 C.3     1  UNL1        0.0435
     24 C         141.6054  131.0835  155.3417 C.3     1  UNL1        0.0158
     25 C         140.9443  132.7942  154.7456 C.3     1  UNL1        0.0158
     26 N         143.0616  131.6607  156.4663 N.3     1  UNL1       -0.3015
     27 C         144.1211  132.3512  157.2730 C.3     1  UNL1        0.0435
     28 C         145.2926  132.5450  158.1895 C.3     1  UNL1        0.0158
     29 C         144.4436  130.9209  157.5895 C.3     1  UNL1        0.0158
     30 C         144.2055  133.8488  157.2748 C.3     1  UNL1        0.0342
     31 H         143.5442  131.0444  155.8123 H       1  UNL1        0.1231
@<TRIPOS>BOND
     1    19    20    1
     2    20     1    1
     3     1     2   ar
     4     2     3   ar
     5     3     4   ar
     6     4     7    1
     7     7     8   ar
     8     8     9   ar
     9     9    10   ar
    10    10    11   ar
    11    11    12   ar
    12    12    13   ar
    13    13    14   ar
    14    14    15   ar
    15    15    16   ar
    16    16    17    1
    17     4     5   ar
    18     5     6   ar
    19    20    21    1
    20    21    22    1
    21    22    23    1
    22    23    24    1
    23    23    25    1
    24    23    26    1
    25    26    27    1
    26    27    28    1
    27    27    29    1
    28    27    30    1
    29     6     1   ar
    30    30    21    1
    31    16     7   ar
    32    14     9   ar
    33    17    18    1
    34    26    31    1
@<TRIPOS>MOLECULE
*****
 31 34 0 0 0
SMALL
GASTEIGER

@<TRIPOS>ATOM
      1 C         142.5393  136.9773  157.4772 C.ar    1  UNL1        0.1535
      2 C         141.2013  137.5460  157.1081 C.ar    1  UNL1        0.0377
      3 C         140.4258  138.3494  158.1095 C.ar    1  UNL1        0.0239
      4 C         140.9882  138.5842  159.4801 C.ar    1  UNL1        0.1059
      5 N         142.3262  138.0155  159.8493 N.ar    1  UNL1       -0.1467
      6 N         143.1017  137.2121  158.8479 N.ar    1  UNL1       -0.1329
      7 C         140.2125  139.3877  160.4816 C.ar    1  UNL1        0.0531
      8 C         139.9383  140.8403  160.2272 C.ar    1  UNL1        0.0061
      9 C         139.1626  141.6437  161.2286 C.ar    1  UNL1        0.0194
     10 C         138.8885  143.0963  160.9742 C.ar    1  UNL1        0.0988
     11 N         138.1128  143.8997  161.9756 N.ar    1  UNL1       -0.2423
     12 C         137.6114  143.2505  163.2315 C.ar    1  UNL1        0.0989
     13 C         137.8855  141.7979  163.4859 C.ar    1  UNL1        0.0208
     14 C         138.6612  140.9945  162.4844 C.ar    1  UNL1        0.0061
     15 C         138.9354  139.5419  162.7388 C.ar    1  UNL1        0.0368
     16 C         139.7110  138.7385  161.7374 C.ar    1  UNL1        0.1351
     17 O         139.9852  137.2858  161.9917 O.3     1  UNL1       -0.5055
     18 H         139.6720  136.8803  162.7762 H       1  UNL1        0.2922
     19 C         144.1888  136.8671  155.4730 C.3     1  UNL1        0.1135
     20 N         143.3150  136.1738  156.4758 N.pl3   1  UNL1       -0.2916
     21 C         143.2168  134.6771  156.4772 C.3     1  UNL1        0.0768
     22 C         144.1843  133.8627  157.2840 C.3     1  UNL1        0.0342
     23 C         144.0860  132.3660  157.2854 C.3     1  UNL1        0.0435
     24 C         144.3952  130.9335  157.6051 C.3     1  UNL1        0.0158
     25 C         145.2591  132.5509  158.2017 C.3     1  UNL1        0.0158
     26 N         143.0204  131.6835  156.4801 N.3     1  UNL1       -0.3015
     27 C         142.0528  132.4978  155.6734 C.3     1  UNL1        0.0435
     28 C         140.9138  132.8327  154.7565 C.3     1  UNL1        0.0158
     29 C         141.5591  131.1174  155.3564 C.3     1  UNL1        0.0158
     30 C         142.1510  133.9946  155.6719 C.3     1  UNL1        0.0342
     31 H         142.4662  131.1303  157.1338 H       1  UNL1        0.1231
@<TRIPOS>BOND
     1    19    20    1
     2    20     1    1
     3     1     2   ar
     4     2     3   ar
     5     3     4   ar
     6     4     7    1
     7     7     8   ar
     8     8     9   ar
     9     9    10   ar
    10    10    11   ar
    11    11    12   ar
    12    12    13   ar
    13    13    14   ar
    14    14    15   ar
    15    15    16   ar
    16    16    17    1
    17     4     5   ar
    18     5     6   ar
    19    20    21    1
    20    21    22    1
    21    22    23    1
    22    23    24    1
    23    23    25    1
    24    23    26    1
    25    26    27    1
    26    27    28    1
    27    27    29    1
    28    27    30    1
    29     6     1   ar
    30    30    21    1
    31    16     7   ar
    32    14     9   ar
    33    17    18    1
    34    26    31    1
@<TRIPOS>MOLECULE
*****
 31 34 0 0 0
SMALL
GASTEIGER

@<TRIPOS>ATOM
      1 C         140.1856  145.4074  156.7860 C.ar    1  UNL1        0.1535
      2 C         139.5712  144.3578  157.6639 C.ar    1  UNL1        0.0377
      3 C         140.2413  143.9679  158.9481 C.ar    1  UNL1        0.0239
      4 C         141.5256  144.6277  159.3543 C.ar    1  UNL1        0.1059
      5 N         142.1400  145.6774  158.4764 N.ar    1  UNL1       -0.1467
      6 N         141.4700  146.0672  157.1923 N.ar    1  UNL1       -0.1329
      7 C         142.1957  144.2379  160.6385 C.ar    1  UNL1        0.0531
      8 C         143.2994  143.2221  160.6303 C.ar    1  UNL1        0.0061
      9 C         143.9694  142.8322  161.9145 C.ar    1  UNL1        0.0194
     10 C         145.0731  141.8165  161.9064 C.ar    1  UNL1        0.0988
     11 N         145.7430  141.4267  163.1905 N.ar    1  UNL1       -0.2423
     12 C         145.3093  142.0526  164.4829 C.ar    1  UNL1        0.0989
     13 C         144.2056  143.0683  164.4911 C.ar    1  UNL1        0.0208
     14 C         143.5357  143.4581  163.2069 C.ar    1  UNL1        0.0061
     15 C         142.4319  144.4739  163.2150 C.ar    1  UNL1        0.0368
     16 C         141.7619  144.8638  161.9308 C.ar    1  UNL1        0.1351
     17 O         140.6582  145.8795  161.9390 O.3     1  UNL1       -0.5055
     18 H         140.3872  146.2705  162.7462 H       1  UNL1        0.2922
     19 C         138.8663  144.7500  154.6465 C.3     1  UNL1        0.1135
     20 N         139.5156  145.7973  155.5018 N.pl3   1  UNL1       -0.2916
     21 C         139.4948  147.2345  155.0730 C.3     1  UNL1        0.0768
     22 C         138.8538  148.2695  155.9493 C.3     1  UNL1        0.0342
     23 C         138.8331  149.7067  155.5204 C.3     1  UNL1        0.0435
     24 C         138.5645  151.1822  155.5482 C.3     1  UNL1        0.0158
     25 C         138.1196  149.8169  156.8352 C.3     1  UNL1        0.0158
     26 N         139.4533  150.1090  154.2153 N.3     1  UNL1       -0.3015
     27 C         140.0943  149.0740  153.3389 C.3     1  UNL1        0.0435
     28 C         140.8150  148.4647  152.1730 C.3     1  UNL1        0.0158
     29 C         140.3239  150.2996  152.5052 C.3     1  UNL1        0.0158
     30 C         140.1151  147.6368  153.7677 C.3     1  UNL1        0.0342
     31 H         140.1732  150.7986  154.4315 H       1  UNL1        0.1231
@<TRIPOS>BOND
     1    19    20    1
     2    20     1    1
     3     1     2   ar
     4     2     3   ar
     5     3     4   ar
     6     4     7    1
     7     7     8   ar
     8     8     9   ar
     9     9    10   ar
    10    10    11   ar
    11    11    12   ar
    12    12    13   ar
    13    13    14   ar
    14    14    15   ar
    15    15    16   ar
    16    16    17    1
    17     4     5   ar
    18     5     6   ar
    19    20    21    1
    20    21    22    1
    21    22    23    1
    22    23    24    1
    23    23    25    1
    24    23    26    1
    25    26    27    1
    26    27    28    1
    27    27    29    1
    28    27    30    1
    29     6     1   ar
    30    30    21    1
    31    16     7   ar
    32    14     9   ar
    33    17    18    1
    34    26    31    1
@<TRIPOS>MOLECULE
*****
 31 34 0 0 0
SMALL
GASTEIGER

@<TRIPOS>ATOM
      1 C         142.1359  137.9373  158.7387 C.ar    1  UNL1        0.1535
      2 C         143.0028  137.6818  159.9358 C.ar    1  UNL1        0.0377
      3 C         142.4627  137.9133  161.3159 C.ar    1  UNL1        0.0239
      4 C         141.0559  138.4004  161.4989 C.ar    1  UNL1        0.1059
      5 N         140.1890  138.6560  160.3017 N.ar    1  UNL1       -0.1467
      6 N         140.7291  138.4245  158.9216 N.ar    1  UNL1       -0.1329
      7 C         140.5159  138.6320  162.8791 C.ar    1  UNL1        0.0531
      8 C         141.3520  139.3418  163.9022 C.ar    1  UNL1        0.0061
      9 C         140.8120  139.5734  165.2824 C.ar    1  UNL1        0.0194
     10 C         141.6481  140.2832  166.3056 C.ar    1  UNL1        0.0988
     11 N         141.1081  140.5147  167.6857 N.ar    1  UNL1       -0.2423
     12 C         139.7319  140.0364  168.0426 C.ar    1  UNL1        0.0989
     13 C         138.8958  139.3265  167.0194 C.ar    1  UNL1        0.0208
     14 C         139.4358  139.0950  165.6393 C.ar    1  UNL1        0.0061
     15 C         138.5997  138.3852  164.6161 C.ar    1  UNL1        0.0368
     16 C         139.1397  138.1536  163.2360 C.ar    1  UNL1        0.1351
     17 O         138.3036  137.4438  162.2127 O.3     1  UNL1       -0.5055
     18 H         137.4439  137.1450  162.4356 H       1  UNL1        0.2922
     19 C         143.3207  138.8323  156.6066 C.3     1  UNL1        0.1135
     20 N         142.6760  137.7058  157.3585 N.pl3   1  UNL1       -0.2916
     21 C         142.5712  136.3477  156.7302 C.3     1  UNL1        0.0768
     22 C         143.2690  135.1763  157.3554 C.3     1  UNL1        0.0342
     23 C         143.1642  133.8183  156.7271 C.3     1  UNL1        0.0435
     24 C         143.3620  132.3477  156.5077 C.3     1  UNL1        0.0158
     25 C         144.0354  133.4942  157.9044 C.3     1  UNL1        0.0158
     26 N         142.3617  133.6316  155.4737 N.3     1  UNL1       -0.3015
     27 C         141.6639  134.8031  154.8485 C.3     1  UNL1        0.0435
     28 C         140.8291  135.5989  153.8894 C.3     1  UNL1        0.0158
     29 C         141.2692  133.7214  153.8872 C.3     1  UNL1        0.0158
     30 C         141.7686  136.1612  155.4767 C.3     1  UNL1        0.0342
     31 H         141.6431  132.9391  155.6845 H       1  UNL1        0.1231
@<TRIPOS>BOND
     1    19    20    1
     2    20     1    1
     3     1     2   ar
     4     2     3   ar
     5     3     4   ar
     6     4     7    1
     7     7     8   ar
     8     8     9   ar
     9     9    10   ar
    10    10    11   ar
    11    11    12   ar
    12    12    13   ar
    13    13    14   ar
    14    14    15   ar
    15    15    16   ar
    16    16    17    1
    17     4     5   ar
    18     5     6   ar
    19    20    21    1
    20    21    22    1
    21    22    23    1
    22    23    24    1
    23    23    25    1
    24    23    26    1
    25    26    27    1
    26    27    28    1
    27    27    29    1
    28    27    30    1
    29     6     1   ar
    30    30    21    1
    31    16     7   ar
    32    14     9   ar
    33    17    18    1
    34    26    31    1
@<TRIPOS>MOLECULE
*****
 31 34 0 0 0
SMALL
GASTEIGER

@<TRIPOS>ATOM
      1 C         142.1304  137.9605  158.7575 C.ar    1  UNL1        0.1535
      2 C         143.0153  137.7569  159.9514 C.ar    1  UNL1        0.0377
      3 C         142.4754  137.9835  161.3324 C.ar    1  UNL1        0.0239
      4 C         141.0506  138.4137  161.5194 C.ar    1  UNL1        0.1059
      5 N         140.1658  138.6173  160.3255 N.ar    1  UNL1       -0.1467
      6 N         140.7057  138.3907  158.9445 N.ar    1  UNL1       -0.1329
      7 C         140.5107  138.6403  162.9005 C.ar    1  UNL1        0.0531
      8 C         141.3453  139.3502  163.9249 C.ar    1  UNL1        0.0061
      9 C         140.8054  139.5768  165.3059 C.ar    1  UNL1        0.0194
     10 C         141.6401  140.2866  166.3304 C.ar    1  UNL1        0.0988
     11 N         141.1002  140.5132  167.7113 N.ar    1  UNL1       -0.2423
     12 C         139.7256  140.0300  168.0679 C.ar    1  UNL1        0.0989
     13 C         138.8910  139.3201  167.0434 C.ar    1  UNL1        0.0208
     14 C         139.4309  139.0935  165.6625 C.ar    1  UNL1        0.0061
     15 C         138.5963  138.3837  164.6380 C.ar    1  UNL1        0.0368
     16 C         139.1362  138.1571  163.2570 C.ar    1  UNL1        0.1351
     17 O         138.3015  137.4472  162.2325 O.3     1  UNL1       -0.5055
     18 H         137.4429  137.1454  162.4552 H       1  UNL1        0.2922
     19 C         143.3203  138.8615  156.6309 C.3     1  UNL1        0.1135
     20 N         142.6703  137.7339  157.3764 N.pl3   1  UNL1       -0.2916
     21 C         142.5602  136.3796  156.7410 C.3     1  UNL1        0.0768
     22 C         141.7588  136.2032  155.4854 C.3     1  UNL1        0.0342
     23 C         141.6487  134.8489  154.8500 C.3     1  UNL1        0.0435
     24 C         141.2505  133.7740  153.8825 C.3     1  UNL1        0.0158
     25 C         140.8191  135.6535  153.8938 C.3     1  UNL1        0.0158
     26 N         142.3399  133.6710  155.4702 N.3     1  UNL1       -0.3015
     27 C         143.1414  133.8473  156.7259 C.3     1  UNL1        0.0435
     28 C         144.0092  133.5131  157.9028 C.3     1  UNL1        0.0158
     29 C         143.3326  132.3770  156.4992 C.3     1  UNL1        0.0158
     30 C         143.2515  135.2016  157.3613 C.3     1  UNL1        0.0342
     31 H         142.9756  133.2978  154.7651 H       1  UNL1        0.1231
@<TRIPOS>BOND
     1    19    20    1
     2    20     1    1
     3     1     2   ar
     4     2     3   ar
     5     3     4   ar
     6     4     7    1
     7     7     8   ar
     8     8     9   ar
     9     9    10   ar
    10    10    11   ar
    11    11    12   ar
    12    12    13   ar
    13    13    14   ar
    14    14    15   ar
    15    15    16   ar
    16    16    17    1
    17     4     5   ar
    18     5     6   ar
    19    20    21    1
    20    21    22    1
    21    22    23    1
    22    23    24    1
    23    23    25    1
    24    23    26    1
    25    26    27    1
    26    27    28    1
    27    27    29    1
    28    27    30    1
    29     6     1   ar
    30    30    21    1
    31    16     7   ar
    32    14     9   ar
    33    17    18    1
    34    26    31    1
@<TRIPOS>MOLECULE
*****
 31 34 0 0 0
SMALL
GASTEIGER

@<TRIPOS>ATOM
      1 C         140.5939  144.4229  162.3185 C.ar    1  UNL1        0.1535
      2 C         141.5254  144.8746  163.4039 C.ar    1  UNL1        0.0377
      3 C         141.5959  144.1154  164.6957 C.ar    1  UNL1        0.0239
      4 C         140.7349  142.9046  164.9020 C.ar    1  UNL1        0.1059
      5 N         139.8034  142.4530  163.8165 N.ar    1  UNL1       -0.1467
      6 N         139.7329  143.2121  162.5248 N.ar    1  UNL1       -0.1329
      7 C         140.8054  142.1455  166.1938 C.ar    1  UNL1        0.0531
      8 C         140.6022  142.8611  167.4963 C.ar    1  UNL1        0.0061
      9 C         140.6727  142.1019  168.7882 C.ar    1  UNL1        0.0194
     10 C         140.4694  142.8175  170.0907 C.ar    1  UNL1        0.0988
     11 N         140.5400  142.0584  171.3824 N.ar    1  UNL1       -0.2423
     12 C         140.8137  140.5836  171.3717 C.ar    1  UNL1        0.0989
     13 C         141.0169  139.8680  170.0692 C.ar    1  UNL1        0.0208
     14 C         140.9464  140.6271  168.7774 C.ar    1  UNL1        0.0061
     15 C         141.1496  139.9115  167.4748 C.ar    1  UNL1        0.0368
     16 C         141.0791  140.6707  166.1831 C.ar    1  UNL1        0.1351
     17 O         141.2823  139.9551  164.8805 O.3     1  UNL1       -0.5055
     18 H         141.4533  139.0338  164.8737 H       1  UNL1        0.2922
     19 C         139.6070  146.3627  160.8996 C.3     1  UNL1        0.1135
     20 N         140.5234  145.1821  161.0266 N.pl3   1  UNL1       -0.2916
     21 C         141.3694  144.7605  159.8619 C.3     1  UNL1        0.0768
     22 C         141.1592  145.3885  158.5160 C.3     1  UNL1        0.0342
     23 C         142.0051  144.9669  157.3513 C.3     1  UNL1        0.0435
     24 C         142.5499  144.9020  155.9553 C.3     1  UNL1        0.0158
     25 C         141.1381  145.9940  156.6853 C.3     1  UNL1        0.0158
     26 N         143.0612  143.9173  157.5323 N.3     1  UNL1       -0.3015
     27 C         143.2715  143.2892  158.8783 C.3     1  UNL1        0.0435
     28 C         143.8446  142.4086  159.9487 C.3     1  UNL1        0.0158
     29 C         144.3165  142.5618  158.0853 C.3     1  UNL1        0.0158
     30 C         142.4256  143.7108  160.0430 C.3     1  UNL1        0.0342
     31 H         143.9485  144.3431  157.2642 H       1  UNL1        0.1231
@<TRIPOS>BOND
     1    19    20    1
     2    20     1    1
     3     1     2   ar
     4     2     3   ar
     5     3     4   ar
     6     4     7    1
     7     7     8   ar
     8     8     9   ar
     9     9    10   ar
    10    10    11   ar
    11    11    12   ar
    12    12    13   ar
    13    13    14   ar
    14    14    15   ar
    15    15    16   ar
    16    16    17    1
    17     4     5   ar
    18     5     6   ar
    19    20    21    1
    20    21    22    1
    21    22    23    1
    22    23    24    1
    23    23    25    1
    24    23    26    1
    25    26    27    1
    26    27    28    1
    27    27    29    1
    28    27    30    1
    29     6     1   ar
    30    30    21    1
    31    16     7   ar
    32    14     9   ar
    33    17    18    1
    34    26    31    1
@<TRIPOS>MOLECULE
*****
 31 34 0 0 0
SMALL
GASTEIGER

@<TRIPOS>ATOM
      1 C         141.4169  142.0705  164.0466 C.ar    1  UNL1        0.1535
      2 C         141.5679  141.1413  162.8789 C.ar    1  UNL1        0.0377
      3 C         141.1842  141.5979  161.5026 C.ar    1  UNL1        0.0239
      4 C         140.6494  142.9837  161.2941 C.ar    1  UNL1        0.1059
      5 N         140.4984  143.9130  162.4618 N.ar    1  UNL1       -0.1467
      6 N         140.8822  143.4564  163.8381 N.ar    1  UNL1       -0.1329
      7 C         140.2656  143.4403  159.9177 C.ar    1  UNL1        0.0531
      8 C         139.3120  142.6249  159.0957 C.ar    1  UNL1        0.0061
      9 C         138.9282  143.0815  157.7194 C.ar    1  UNL1        0.0194
     10 C         137.9745  142.2662  156.8974 C.ar    1  UNL1        0.0988
     11 N         137.5908  142.7228  155.5211 N.ar    1  UNL1       -0.2423
     12 C         138.1608  143.9947  154.9668 C.ar    1  UNL1        0.0989
     13 C         139.1144  144.8101  155.7887 C.ar    1  UNL1        0.0208
     14 C         139.4982  144.3535  157.1650 C.ar    1  UNL1        0.0061
     15 C         140.4519  145.1688  157.9870 C.ar    1  UNL1        0.0368
     16 C         140.8356  144.7123  159.3633 C.ar    1  UNL1        0.1351
     17 O         141.7893  145.5276  160.1854 O.3     1  UNL1       -0.5055
     18 H         142.1454  146.3222  159.8391 H       1  UNL1        0.2922
     19 C         143.1995  141.8269  165.9210 C.3     1  UNL1        0.1135
     20 N         141.8007  141.6140  165.4230 N.pl3   1  UNL1       -0.2916
     21 C         140.7856  140.9445  166.3013 C.3     1  UNL1        0.0768
     22 C         140.7111  141.2896  167.7591 C.3     1  UNL1        0.0342
     23 C         139.6961  140.6201  168.6374 C.3     1  UNL1        0.0435
     24 C         138.9132  140.2595  169.8651 C.3     1  UNL1        0.0158
     25 C         140.3648  141.5095  169.6433 C.3     1  UNL1        0.0158
     26 N         138.7555  139.6055  168.0579 N.3     1  UNL1       -0.3015
     27 C         138.8300  139.2604  166.6000 C.3     1  UNL1        0.0435
     28 C         138.5138  138.6035  165.2891 C.3     1  UNL1        0.0158
     29 C         137.7051  138.3628  167.0230 C.3     1  UNL1        0.0158
     30 C         139.8450  139.9298  165.7217 C.3     1  UNL1        0.0342
     31 H         137.8103  139.9472  168.2317 H       1  UNL1        0.1231
@<TRIPOS>BOND
     1    19    20    1
     2    20     1    1
     3     1     2   ar
     4     2     3   ar
     5     3     4   ar
     6     4     7    1
     7     7     8   ar
     8     8     9   ar
     9     9    10   ar
    10    10    11   ar
    11    11    12   ar
    12    12    13   ar
    13    13    14   ar
    14    14    15   ar
    15    15    16   ar
    16    16    17    1
    17     4     5   ar
    18     5     6   ar
    19    20    21    1
    20    21    22    1
    21    22    23    1
    22    23    24    1
    23    23    25    1
    24    23    26    1
    25    26    27    1
    26    27    28    1
    27    27    29    1
    28    27    30    1
    29     6     1   ar
    30    30    21    1
    31    16     7   ar
    32    14     9   ar
    33    17    18    1
    34    26    31    1
@<TRIPOS>MOLECULE
*****
 31 34 0 0 0
SMALL
GASTEIGER

@<TRIPOS>ATOM
      1 C         143.7438  140.1798  158.6637 C.ar    1  UNL1        0.1535
      2 C         143.0512  139.1409  159.4948 C.ar    1  UNL1        0.0377
      3 C         142.6587  137.8294  158.8818 C.ar    1  UNL1        0.0239
      4 C         142.9587  137.5568  157.4376 C.ar    1  UNL1        0.1059
      5 N         143.6512  138.5958  156.6065 N.ar    1  UNL1       -0.1467
      6 N         144.0438  139.9073  157.2195 N.ar    1  UNL1       -0.1329
      7 C         142.5661  136.2453  156.8246 C.ar    1  UNL1        0.0531
      8 C         143.1933  134.9725  157.3109 C.ar    1  UNL1        0.0061
      9 C         142.8007  133.6609  156.6979 C.ar    1  UNL1        0.0194
     10 C         143.4280  132.3881  157.1841 C.ar    1  UNL1        0.0988
     11 N         143.0353  131.0766  156.5711 N.ar    1  UNL1       -0.2423
     12 C         142.0155  131.0379  155.4719 C.ar    1  UNL1        0.0989
     13 C         141.3882  132.3107  154.9856 C.ar    1  UNL1        0.0208
     14 C         141.7809  133.6222  155.5986 C.ar    1  UNL1        0.0061
     15 C         141.1536  134.8951  155.1123 C.ar    1  UNL1        0.0368
     16 C         141.5462  136.2066  155.7253 C.ar    1  UNL1        0.1351
     17 O         140.9190  137.4795  155.2391 O.3     1  UNL1       -0.5055
     18 H         140.2819  137.4553  154.5524 H       1  UNL1        0.2922
     19 C         144.9359  142.4811  158.4823 C.3     1  UNL1        0.1135
     20 N         144.1364  141.4914  159.2767 N.pl3   1  UNL1       -0.2916
     21 C         143.7294  141.8132  160.6841 C.3     1  UNL1        0.0768
     22 C         142.3231  142.2440  160.9783 C.3     1  UNL1        0.0342
     23 C         141.9161  142.5657  162.3857 C.3     1  UNL1        0.0435
     24 C         141.0587  142.9747  163.5465 C.3     1  UNL1        0.0158
     25 C         140.6190  142.8168  161.6756 C.3     1  UNL1        0.0158
     26 N         142.9155  142.4567  163.4990 N.3     1  UNL1       -0.3015
     27 C         144.3219  142.0258  163.2048 C.3     1  UNL1        0.0435
     28 C         145.7604  141.6630  163.4261 C.3     1  UNL1        0.0158
     29 C         144.4145  142.2216  164.6890 C.3     1  UNL1        0.0158
     30 C         144.7289  141.7041  161.7974 C.3     1  UNL1        0.0342
     31 H         142.5370  141.7882  164.1700 H       1  UNL1        0.1231
@<TRIPOS>BOND
     1    19    20    1
     2    20     1    1
     3     1     2   ar
     4     2     3   ar
     5     3     4   ar
     6     4     7    1
     7     7     8   ar
     8     8     9   ar
     9     9    10   ar
    10    10    11   ar
    11    11    12   ar
    12    12    13   ar
    13    13    14   ar
    14    14    15   ar
    15    15    16   ar
    16    16    17    1
    17     4     5   ar
    18     5     6   ar
    19    20    21    1
    20    21    22    1
    21    22    23    1
    22    23    24    1
    23    23    25    1
    24    23    26    1
    25    26    27    1
    26    27    28    1
    27    27    29    1
    28    27    30    1
    29     6     1   ar
    30    30    21    1
    31    16     7   ar
    32    14     9   ar
    33    17    18    1
    34    26    31    1
