@<TRIPOS>MOLECULE
*****
 30 33 0 0 0
SMALL
GASTEIGER

@<TRIPOS>ATOM
      1 C         140.6328  138.5193  164.8772 C.ar    1  UNL1        0.1036
      2 C         141.2077  137.1791  164.5260 C.ar    1  UNL1        0.1197
      3 N         140.8631  136.8873  163.0956 N.ar    1  UNL1       -0.2234
      4 C         140.0751  138.0471  162.5627 C.ar    1  UNL1        0.1640
      5 C         139.4688  138.3150  161.2172 C.ar    1  UNL1        0.0417
      6 C         138.7202  139.5916  160.9727 C.ar    1  UNL1        0.0393
      7 C         138.5779  140.6003  162.0738 C.ar    1  UNL1        0.1525
      8 N         139.1841  140.3323  163.4193 N.ar    1  UNL1       -0.1486
      9 N         139.9328  139.0557  163.6638 N.ar    1  UNL1       -0.2096
     10 C         140.9519  140.5704  168.8698 C.ar    1  UNL1        0.1807
     11 C         139.6030  140.2667  168.2883 C.ar    1  UNL1        0.0520
     12 C         139.4967  139.5830  166.9574 C.ar    1  UNL1        0.0060
     13 C         140.7391  139.2030  166.2080 C.ar    1  UNL1        0.0196
     14 C         142.0881  139.5067  166.7895 C.ar    1  UNL1        0.0060
     15 C         142.1945  140.1904  168.1204 C.ar    1  UNL1        0.0520
     16 C         141.9599  142.4418  170.3638 C.3     1  UNL1        0.3254
     17 S         141.0583  141.2542  170.2007 S.O     1  UNL1        0.0581
     18 O         140.2630  140.7502  171.3684 O.co2   1  UNL1       -0.6774
     19 N         137.8292  141.8769  161.8293 N.pl3   1  UNL1       -0.2965
     20 H         136.8535  141.8583  161.6992 H       1  UNL1        0.1537
     21 C         138.5671  143.1820  161.7829 C.ar    1  UNL1        0.0507
     22 C         138.4671  144.1415  162.9315 C.ar    1  UNL1        0.0147
     23 C         139.2051  145.4466  162.8851 C.ar    1  UNL1        0.0026
     24 C         140.0430  145.7922  161.6900 C.ar    1  UNL1        0.0184
     25 C         140.1431  144.8328  160.5413 C.ar    1  UNL1        0.1070
     26 C         139.4051  143.5277  160.5877 C.ar    1  UNL1        0.0330
     27 S         140.9810  145.1785  159.3462 S.O2    1  UNL1        0.0105
     28 C         141.8191  145.5241  158.1511 C.3     1  UNL1        0.1816
     29 O         139.7489  145.6084  158.6067 O.2     1  UNL1       -0.1686
     30 O         142.2131  144.7485  160.0858 O.2     1  UNL1       -0.1686
@<TRIPOS>UNITY_ATOM_ATTR
17 1
charge 1
18 1
charge -1
@<TRIPOS>BOND
     1    16    17    1
     2    17    18    2
     3    17    10    1
     4    10    11   ar
     5    11    12   ar
     6    12    13   ar
     7    13     1    1
     8     1     2   ar
     9     2     3   ar
    10     3     4   ar
    11     4     5   ar
    12     5     6   ar
    13     6     7   ar
    14     7    19    1
    15    19    21    1
    16    21    22   ar
    17    22    23   ar
    18    23    24   ar
    19    24    25   ar
    20    25    27    1
    21    27    28    1
    22    27    29    2
    23    27    30    2
    24    25    26   ar
    25     7     8   ar
    26     8     9   ar
    27    13    14   ar
    28    14    15   ar
    29    15    10   ar
    30     9     1   ar
    31     9     4   ar
    32    26    21   ar
    33    19    20    1
@<TRIPOS>MOLECULE
*****
 30 33 0 0 0
SMALL
GASTEIGER

@<TRIPOS>ATOM
      1 C         138.7652  139.4293  165.7513 C.ar    1  UNL1        0.1036
      2 C         137.7967  138.7499  166.6735 C.ar    1  UNL1        0.1197
      3 N         138.2261  139.0283  168.0835 N.ar    1  UNL1       -0.2234
      4 C         139.4600  139.8797  168.0327 C.ar    1  UNL1        0.1640
      5 C         140.3232  140.4614  169.1128 C.ar    1  UNL1        0.0417
      6 C         141.5196  141.2909  168.7515 C.ar    1  UNL1        0.0393
      7 C         141.8528  141.5387  167.3101 C.ar    1  UNL1        0.1525
      8 N         140.9896  140.9571  166.2300 N.ar    1  UNL1       -0.1486
      9 N         139.7932  140.1276  166.5914 N.ar    1  UNL1       -0.2096
     10 C         138.6136  139.3811  161.2541 C.ar    1  UNL1        0.1807
     11 C         137.9547  140.4933  162.0149 C.ar    1  UNL1        0.0520
     12 C         138.0053  140.5093  163.5139 C.ar    1  UNL1        0.0060
     13 C         138.7147  139.4133  164.2522 C.ar    1  UNL1        0.0196
     14 C         139.3736  138.3010  163.4914 C.ar    1  UNL1        0.0060
     15 C         139.3231  138.2850  161.9924 C.ar    1  UNL1        0.0520
     16 C         139.6596  138.7029  158.9746 C.3     1  UNL1        0.3254
     17 S         138.5631  139.3651  159.7550 S.O     1  UNL1        0.0581
     18 O         137.4159  140.0113  159.0364 O.co2   1  UNL1       -0.6774
     19 N         143.0492  142.3682  166.9488 N.pl3   1  UNL1       -0.2965
     20 H         143.6629  142.6798  167.6528 H       1  UNL1        0.1537
     21 C         143.3106  142.7230  165.5150 C.ar    1  UNL1        0.0507
     22 C         144.5665  142.2529  164.8430 C.ar    1  UNL1        0.0147
     23 C         144.8278  142.6078  163.4091 C.ar    1  UNL1        0.0026
     24 C         143.8333  143.4327  162.6474 C.ar    1  UNL1        0.0184
     25 C         142.5773  143.9028  163.3194 C.ar    1  UNL1        0.1070
     26 C         142.3160  143.5480  164.7532 C.ar    1  UNL1        0.0330
     27 S         141.5827  144.7277  162.5577 S.O2    1  UNL1        0.0105
     28 C         140.5881  145.5526  161.7959 C.3     1  UNL1        0.1816
     29 O         140.7274  144.8303  163.7856 O.2     1  UNL1       -0.1686
     30 O         142.4381  144.6251  161.3298 O.2     1  UNL1       -0.1686
@<TRIPOS>UNITY_ATOM_ATTR
17 1
charge 1
18 1
charge -1
@<TRIPOS>BOND
     1    16    17    1
     2    17    18    2
     3    17    10    1
     4    10    11   ar
     5    11    12   ar
     6    12    13   ar
     7    13     1    1
     8     1     2   ar
     9     2     3   ar
    10     3     4   ar
    11     4     5   ar
    12     5     6   ar
    13     6     7   ar
    14     7    19    1
    15    19    21    1
    16    21    22   ar
    17    22    23   ar
    18    23    24   ar
    19    24    25   ar
    20    25    27    1
    21    27    28    1
    22    27    29    2
    23    27    30    2
    24    25    26   ar
    25     7     8   ar
    26     8     9   ar
    27    13    14   ar
    28    14    15   ar
    29    15    10   ar
    30     9     1   ar
    31     9     4   ar
    32    26    21   ar
    33    19    20    1
@<TRIPOS>MOLECULE
*****
 30 33 0 0 0
SMALL
GASTEIGER

@<TRIPOS>ATOM
      1 C         143.0543  139.0997  165.3182 C.ar    1  UNL1        0.1036
      2 C         143.7243  138.1728  166.2888 C.ar    1  UNL1        0.1197
      3 N         143.3839  138.6298  167.6764 N.ar    1  UNL1       -0.2234
      4 C         142.5036  139.8390  167.5634 C.ar    1  UNL1        0.1640
      5 C         141.8613  140.7132  168.5993 C.ar    1  UNL1        0.0417
      6 C         141.0152  141.8778  168.1777 C.ar    1  UNL1        0.0393
      7 C         140.8115  142.1683  166.7203 C.ar    1  UNL1        0.1525
      8 N         141.4539  141.2941  165.6844 N.ar    1  UNL1       -0.1486
      9 N         142.2999  140.1295  166.1059 N.ar    1  UNL1       -0.2096
     10 C         143.2699  138.8373  160.8310 C.ar    1  UNL1        0.1807
     11 C         142.3146  137.9633  161.5884 C.ar    1  UNL1        0.0520
     12 C         142.2428  138.0508  163.0842 C.ar    1  UNL1        0.0060
     13 C         143.1262  139.0122  163.8225 C.ar    1  UNL1        0.0196
     14 C         144.0815  139.8862  163.0651 C.ar    1  UNL1        0.0060
     15 C         144.1533  139.7987  161.5694 C.ar    1  UNL1        0.0520
     16 C         142.5460  137.7082  158.6059 C.3     1  UNL1        0.3254
     17 S         143.3417  138.7498  159.3353 S.O     1  UNL1        0.0581
     18 O         144.2092  139.7038  158.5691 O.co2   1  UNL1       -0.6774
     19 N         139.9653  143.3330  166.2987 N.pl3   1  UNL1       -0.2965
     20 H         139.8328  144.0923  166.9111 H       1  UNL1        0.1537
     21 C         139.3212  143.3407  164.9441 C.ar    1  UNL1        0.0507
     22 C         138.0304  142.6091  164.7233 C.ar    1  UNL1        0.0147
     23 C         137.3863  142.6168  163.3686 C.ar    1  UNL1        0.0026
     24 C         138.0328  143.3561  162.2349 C.ar    1  UNL1        0.0184
     25 C         139.3235  144.0877  162.4558 C.ar    1  UNL1        0.1070
     26 C         139.9677  144.0800  163.8103 C.ar    1  UNL1        0.0330
     27 S         139.9701  144.8270  161.3220 S.O2    1  UNL1        0.0105
     28 C         140.6167  145.5663  160.1882 C.3     1  UNL1        0.1816
     29 O         139.1467  146.0390  161.6428 O.2     1  UNL1       -0.1686
     30 O         140.7935  143.6149  161.0012 O.2     1  UNL1       -0.1686
@<TRIPOS>UNITY_ATOM_ATTR
17 1
charge 1
18 1
charge -1
@<TRIPOS>BOND
     1    16    17    1
     2    17    18    2
     3    17    10    1
     4    10    11   ar
     5    11    12   ar
     6    12    13   ar
     7    13     1    1
     8     1     2   ar
     9     2     3   ar
    10     3     4   ar
    11     4     5   ar
    12     5     6   ar
    13     6     7   ar
    14     7    19    1
    15    19    21    1
    16    21    22   ar
    17    22    23   ar
    18    23    24   ar
    19    24    25   ar
    20    25    27    1
    21    27    28    1
    22    27    29    2
    23    27    30    2
    24    25    26   ar
    25     7     8   ar
    26     8     9   ar
    27    13    14   ar
    28    14    15   ar
    29    15    10   ar
    30     9     1   ar
    31     9     4   ar
    32    26    21   ar
    33    19    20    1
@<TRIPOS>MOLECULE
*****
 30 33 0 0 0
SMALL
GASTEIGER

@<TRIPOS>ATOM
      1 C         139.2264  139.4068  165.4211 C.ar    1  UNL1        0.1036
      2 C         139.1781  137.9108  165.5206 C.ar    1  UNL1        0.1197
      3 N         138.7011  137.3740  164.2037 N.ar    1  UNL1       -0.2234
      4 C         138.4547  138.5380  163.2903 C.ar    1  UNL1        0.1640
      5 C         137.9766  138.6163  161.8708 C.ar    1  UNL1        0.0417
      6 C         137.8231  139.9509  161.2036 C.ar    1  UNL1        0.0393
      7 C         138.1478  141.2073  161.9560 C.ar    1  UNL1        0.1525
      8 N         138.6258  141.1290  163.3756 N.ar    1  UNL1       -0.1486
      9 N         138.7793  139.7944  164.0428 N.ar    1  UNL1       -0.2096
     10 C         140.4906  142.2353  168.6848 C.ar    1  UNL1        0.1807
     11 C         139.8736  140.9137  169.0350 C.ar    1  UNL1        0.0520
     12 C         139.4522  139.9709  167.9471 C.ar    1  UNL1        0.0060
     13 C         139.6478  140.3496  166.5090 C.ar    1  UNL1        0.0196
     14 C         140.2649  141.6712  166.1588 C.ar    1  UNL1        0.0060
     15 C         140.6863  142.6140  167.2467 C.ar    1  UNL1        0.0520
     16 C         142.3342  143.1854  170.2496 C.3     1  UNL1        0.3254
     17 S         140.9120  143.1781  169.7727 S.O     1  UNL1        0.0581
     18 O         139.9113  144.1136  170.3836 O.co2   1  UNL1       -0.6774
     19 N         137.9943  142.5420  161.2888 N.pl3   1  UNL1       -0.2965
     20 H         137.0959  142.8977  161.1004 H       1  UNL1        0.1537
     21 C         139.2097  143.3346  160.9087 C.ar    1  UNL1        0.0507
     22 C         139.4065  143.7703  159.4869 C.ar    1  UNL1        0.0147
     23 C         140.6220  144.5630  159.1069 C.ar    1  UNL1        0.0026
     24 C         141.6405  144.9200  160.1486 C.ar    1  UNL1        0.0184
     25 C         141.4437  144.4843  161.5703 C.ar    1  UNL1        0.1070
     26 C         140.2283  143.6916  161.9504 C.ar    1  UNL1        0.0330
     27 S         142.4622  144.8413  162.6120 S.O2    1  UNL1        0.0105
     28 C         143.4808  145.1982  163.6537 C.3     1  UNL1        0.1816
     29 O         141.3881  145.4761  163.4446 O.2     1  UNL1       -0.1686
     30 O         143.5362  144.2064  161.7794 O.2     1  UNL1       -0.1686
@<TRIPOS>UNITY_ATOM_ATTR
17 1
charge 1
18 1
charge -1
@<TRIPOS>BOND
     1    16    17    1
     2    17    18    2
     3    17    10    1
     4    10    11   ar
     5    11    12   ar
     6    12    13   ar
     7    13     1    1
     8     1     2   ar
     9     2     3   ar
    10     3     4   ar
    11     4     5   ar
    12     5     6   ar
    13     6     7   ar
    14     7    19    1
    15    19    21    1
    16    21    22   ar
    17    22    23   ar
    18    23    24   ar
    19    24    25   ar
    20    25    27    1
    21    27    28    1
    22    27    29    2
    23    27    30    2
    24    25    26   ar
    25     7     8   ar
    26     8     9   ar
    27    13    14   ar
    28    14    15   ar
    29    15    10   ar
    30     9     1   ar
    31     9     4   ar
    32    26    21   ar
    33    19    20    1
@<TRIPOS>MOLECULE
*****
 30 33 0 0 0
SMALL
GASTEIGER

@<TRIPOS>ATOM
      1 C         139.3091  138.8928  165.3961 C.ar    1  UNL1        0.1036
      2 C         138.8027  137.4980  165.1765 C.ar    1  UNL1        0.1197
      3 N         138.4298  137.3628  163.7299 N.ar    1  UNL1       -0.2234
      4 C         138.7057  138.6739  163.0555 C.ar    1  UNL1        0.1640
      5 C         138.5322  139.1288  161.6367 C.ar    1  UNL1        0.0417
      6 C         138.9023  140.5294  161.2478 C.ar    1  UNL1        0.0393
      7 C         139.4457  141.4751  162.2775 C.ar    1  UNL1        0.1525
      8 N         139.6192  141.0201  163.6963 N.ar    1  UNL1       -0.1486
      9 N         139.2491  139.6195  164.0852 N.ar    1  UNL1       -0.2096
     10 C         140.7543  140.5978  169.3018 C.ar    1  UNL1        0.1807
     11 C         141.7189  140.3878  168.1724 C.ar    1  UNL1        0.0520
     12 C         141.2371  139.8195  166.8705 C.ar    1  UNL1        0.0060
     13 C         139.7909  139.4611  166.6980 C.ar    1  UNL1        0.0196
     14 C         138.8263  139.6711  167.8275 C.ar    1  UNL1        0.0060
     15 C         139.3080  140.2394  169.1293 C.ar    1  UNL1        0.0520
     16 C         142.4245  142.0810  170.6287 C.3     1  UNL1        0.3254
     17 S         141.2361  141.1661  170.6037 S.O     1  UNL1        0.0581
     18 O         140.5295  140.8194  171.8806 O.co2   1  UNL1       -0.6774
     19 N         139.8158  142.8757  161.8885 N.pl3   1  UNL1       -0.2965
     20 H         139.2599  143.3708  161.2442 H       1  UNL1        0.1537
     21 C         141.0327  143.5220  162.4811 C.ar    1  UNL1        0.0507
     22 C         140.9936  144.9662  162.8849 C.ar    1  UNL1        0.0147
     23 C         142.2106  145.6125  163.4775 C.ar    1  UNL1        0.0026
     24 C         143.4667  144.8147  163.6664 C.ar    1  UNL1        0.0184
     25 C         143.5058  143.3705  163.2627 C.ar    1  UNL1        0.1070
     26 C         142.2889  142.7242  162.6701 C.ar    1  UNL1        0.0330
     27 S         144.7619  142.5727  163.4516 S.O2    1  UNL1        0.0105
     28 C         146.0181  141.7749  163.6406 C.3     1  UNL1        0.1816
     29 O         144.7387  142.1926  162.0008 O.2     1  UNL1       -0.1686
     30 O         144.7851  142.9529  164.9025 O.2     1  UNL1       -0.1686
@<TRIPOS>UNITY_ATOM_ATTR
17 1
charge 1
18 1
charge -1
@<TRIPOS>BOND
     1    16    17    1
     2    17    18    2
     3    17    10    1
     4    10    11   ar
     5    11    12   ar
     6    12    13   ar
     7    13     1    1
     8     1     2   ar
     9     2     3   ar
    10     3     4   ar
    11     4     5   ar
    12     5     6   ar
    13     6     7   ar
    14     7    19    1
    15    19    21    1
    16    21    22   ar
    17    22    23   ar
    18    23    24   ar
    19    24    25   ar
    20    25    27    1
    21    27    28    1
    22    27    29    2
    23    27    30    2
    24    25    26   ar
    25     7     8   ar
    26     8     9   ar
    27    13    14   ar
    28    14    15   ar
    29    15    10   ar
    30     9     1   ar
    31     9     4   ar
    32    26    21   ar
    33    19    20    1
@<TRIPOS>MOLECULE
*****
 30 33 0 0 0
SMALL
GASTEIGER

@<TRIPOS>ATOM
      1 C         141.2492  138.3382  164.8436 C.ar    1  UNL1        0.1036
      2 C         140.7273  136.9748  164.4988 C.ar    1  UNL1        0.1197
      3 N         141.1657  136.6504  163.1015 N.ar    1  UNL1       -0.2234
      4 C         141.9586  137.8133  162.5826 C.ar    1  UNL1        0.1640
      5 C         142.6402  138.0570  161.2689 C.ar    1  UNL1        0.0417
      6 C         143.3735  139.3439  161.0319 C.ar    1  UNL1        0.0393
      7 C         143.4251  140.3870  162.1086 C.ar    1  UNL1        0.1525
      8 N         142.7435  140.1432  163.4223 N.ar    1  UNL1       -0.1486
      9 N         142.0102  138.8564  163.6593 N.ar    1  UNL1       -0.2096
     10 C         140.6393  140.4951  168.7456 C.ar    1  UNL1        0.1807
     11 C         139.4651  140.2009  167.8597 C.ar    1  UNL1        0.0520
     12 C         139.6685  139.4819  166.5591 C.ar    1  UNL1        0.0060
     13 C         141.0459  139.0572  166.1442 C.ar    1  UNL1        0.0196
     14 C         142.2201  139.3514  167.0301 C.ar    1  UNL1        0.0060
     15 C         142.0168  140.0703  168.3308 C.ar    1  UNL1        0.0520
     16 C         141.6212  141.6419  170.8600 C.3     1  UNL1        0.3254
     17 S         140.4360  141.2141  170.0463 S.O     1  UNL1        0.0581
     18 O         139.0474  141.5053  170.5331 O.co2   1  UNL1       -0.6774
     19 N         144.1584  141.6740  161.8715 N.pl3   1  UNL1       -0.2965
     20 H         144.9695  141.6828  161.3136 H       1  UNL1        0.1537
     21 C         143.6559  142.9474  162.4845 C.ar    1  UNL1        0.0507
     22 C         144.3894  143.5651  163.6379 C.ar    1  UNL1        0.0147
     23 C         143.8868  144.8386  164.2509 C.ar    1  UNL1        0.0026
     24 C         142.6508  145.4944  163.7104 C.ar    1  UNL1        0.0184
     25 C         141.9173  144.8767  162.5569 C.ar    1  UNL1        0.1070
     26 C         142.4198  143.6032  161.9440 C.ar    1  UNL1        0.0330
     27 S         140.6813  145.5324  162.0164 S.O2    1  UNL1        0.0105
     28 C         139.4452  146.1883  161.4758 C.3     1  UNL1        0.1816
     29 O         140.0410  145.4411  163.3698 O.2     1  UNL1       -0.1686
     30 O         141.3215  145.6238  160.6630 O.2     1  UNL1       -0.1686
@<TRIPOS>UNITY_ATOM_ATTR
17 1
charge 1
18 1
charge -1
@<TRIPOS>BOND
     1    16    17    1
     2    17    18    2
     3    17    10    1
     4    10    11   ar
     5    11    12   ar
     6    12    13   ar
     7    13     1    1
     8     1     2   ar
     9     2     3   ar
    10     3     4   ar
    11     4     5   ar
    12     5     6   ar
    13     6     7   ar
    14     7    19    1
    15    19    21    1
    16    21    22   ar
    17    22    23   ar
    18    23    24   ar
    19    24    25   ar
    20    25    27    1
    21    27    28    1
    22    27    29    2
    23    27    30    2
    24    25    26   ar
    25     7     8   ar
    26     8     9   ar
    27    13    14   ar
    28    14    15   ar
    29    15    10   ar
    30     9     1   ar
    31     9     4   ar
    32    26    21   ar
    33    19    20    1
@<TRIPOS>MOLECULE
*****
 30 33 0 0 0
SMALL
GASTEIGER

@<TRIPOS>ATOM
      1 C         139.7256  143.4115  165.1867 C.ar    1  UNL1        0.1036
      2 C         138.9371  144.6865  165.1361 C.ar    1  UNL1        0.1197
      3 N         138.1453  144.6916  163.8621 N.ar    1  UNL1       -0.2234
      4 C         138.4444  143.4197  163.1253 C.ar    1  UNL1        0.1640
      5 C         137.9536  142.8797  161.8148 C.ar    1  UNL1        0.0417
      6 C         138.4395  141.5486  161.3229 C.ar    1  UNL1        0.0393
      7 C         139.4162  140.7575  162.1416 C.ar    1  UNL1        0.1525
      8 N         139.9070  141.2974  163.4521 N.ar    1  UNL1       -0.1486
      9 N         139.4211  142.6285  163.9440 N.ar    1  UNL1       -0.2096
     10 C         142.5150  142.1556  168.4870 C.ar    1  UNL1        0.1807
     11 C         141.1261  142.6181  168.8142 C.ar    1  UNL1        0.0520
     12 C         140.1963  143.0367  167.7141 C.ar    1  UNL1        0.0060
     13 C         140.6554  142.9929  166.2868 C.ar    1  UNL1        0.0196
     14 C         142.0443  142.5303  165.9596 C.ar    1  UNL1        0.0060
     15 C         142.9741  142.1117  167.0597 C.ar    1  UNL1        0.0520
     16 C         144.4500  142.7090  170.1301 C.3     1  UNL1        0.3254
     17 S         143.4448  141.7370  169.5872 S.O     1  UNL1        0.0581
     18 O         143.3692  140.3464  170.1443 O.co2   1  UNL1       -0.6774
     19 N         139.9021  139.4263  161.6496 N.pl3   1  UNL1       -0.2965
     20 H         139.2550  138.7344  161.3815 H       1  UNL1        0.1537
     21 C         141.3739  139.1492  161.5661 C.ar    1  UNL1        0.0507
     22 C         141.8732  137.9814  160.7680 C.ar    1  UNL1        0.0147
     23 C         143.3451  137.7044  160.6846 C.ar    1  UNL1        0.0026
     24 C         144.3176  138.5951  161.3992 C.ar    1  UNL1        0.0184
     25 C         143.8183  139.7629  162.1973 C.ar    1  UNL1        0.1070
     26 C         142.3465  140.0399  162.2808 C.ar    1  UNL1        0.0330
     27 S         144.7908  140.6536  162.9120 S.O2    1  UNL1        0.0105
     28 C         145.7634  141.5444  163.6267 C.3     1  UNL1        0.1816
     29 O         144.5602  139.8874  164.1807 O.2     1  UNL1       -0.1686
     30 O         145.0215  141.4197  161.6433 O.2     1  UNL1       -0.1686
@<TRIPOS>UNITY_ATOM_ATTR
17 1
charge 1
18 1
charge -1
@<TRIPOS>BOND
     1    16    17    1
     2    17    18    2
     3    17    10    1
     4    10    11   ar
     5    11    12   ar
     6    12    13   ar
     7    13     1    1
     8     1     2   ar
     9     2     3   ar
    10     3     4   ar
    11     4     5   ar
    12     5     6   ar
    13     6     7   ar
    14     7    19    1
    15    19    21    1
    16    21    22   ar
    17    22    23   ar
    18    23    24   ar
    19    24    25   ar
    20    25    27    1
    21    27    28    1
    22    27    29    2
    23    27    30    2
    24    25    26   ar
    25     7     8   ar
    26     8     9   ar
    27    13    14   ar
    28    14    15   ar
    29    15    10   ar
    30     9     1   ar
    31     9     4   ar
    32    26    21   ar
    33    19    20    1
@<TRIPOS>MOLECULE
*****
 30 33 0 0 0
SMALL
GASTEIGER

@<TRIPOS>ATOM
      1 C         141.1508  138.5836  164.7218 C.ar    1  UNL1        0.1036
      2 C         140.8088  137.1761  164.3319 C.ar    1  UNL1        0.1197
      3 N         141.1437  137.0030  162.8800 N.ar    1  UNL1       -0.2234
      4 C         141.6926  138.3035  162.3727 C.ar    1  UNL1        0.1640
      5 C         142.1891  138.7244  161.0212 C.ar    1  UNL1        0.0417
      6 C         142.6899  140.1222  160.8081 C.ar    1  UNL1        0.0393
      7 C         142.6943  141.0990  161.9464 C.ar    1  UNL1        0.1525
      8 N         142.1978  140.6781  163.2979 N.ar    1  UNL1       -0.1486
      9 N         141.6970  139.2804  163.5110 N.ar    1  UNL1       -0.2096
     10 C         140.6294  140.3974  168.8070 C.ar    1  UNL1        0.1807
     11 C         142.0064  140.1403  168.2707 C.ar    1  UNL1        0.0520
     12 C         142.1802  139.5357  166.9089 C.ar    1  UNL1        0.0060
     13 C         140.9770  139.1882  166.0835 C.ar    1  UNL1        0.0196
     14 C         139.5999  139.4453  166.6198 C.ar    1  UNL1        0.0060
     15 C         139.4261  140.0498  167.9816 C.ar    1  UNL1        0.0520
     16 C         141.5824  140.9588  171.1578 C.3     1  UNL1        0.3254
     17 S         140.4556  141.0020  170.1687 S.O     1  UNL1        0.0581
     18 O         139.1550  141.6498  170.5412 O.co2   1  UNL1       -0.6774
     19 N         143.1951  142.4968  161.7333 N.pl3   1  UNL1       -0.2965
     20 H         144.1441  142.7085  161.8874 H       1  UNL1        0.1537
     21 C         142.2500  143.5720  161.2854 C.ar    1  UNL1        0.0507
     22 C         141.3800  144.2711  162.2876 C.ar    1  UNL1        0.0147
     23 C         140.4349  145.3464  161.8396 C.ar    1  UNL1        0.0026
     24 C         140.3597  145.7224  160.3895 C.ar    1  UNL1        0.0184
     25 C         141.2296  145.0233  159.3873 C.ar    1  UNL1        0.1070
     26 C         142.1747  143.9481  159.8352 C.ar    1  UNL1        0.0330
     27 S         141.1544  145.3993  157.9371 S.O2    1  UNL1        0.0105
     28 C         141.0793  145.7754  156.4869 C.3     1  UNL1        0.1816
     29 O         139.8847  144.6129  157.7990 O.2     1  UNL1       -0.1686
     30 O         142.4242  146.1858  158.0752 O.2     1  UNL1       -0.1686
@<TRIPOS>UNITY_ATOM_ATTR
17 1
charge 1
18 1
charge -1
@<TRIPOS>BOND
     1    16    17    1
     2    17    18    2
     3    17    10    1
     4    10    11   ar
     5    11    12   ar
     6    12    13   ar
     7    13     1    1
     8     1     2   ar
     9     2     3   ar
    10     3     4   ar
    11     4     5   ar
    12     5     6   ar
    13     6     7   ar
    14     7    19    1
    15    19    21    1
    16    21    22   ar
    17    22    23   ar
    18    23    24   ar
    19    24    25   ar
    20    25    27    1
    21    27    28    1
    22    27    29    2
    23    27    30    2
    24    25    26   ar
    25     7     8   ar
    26     8     9   ar
    27    13    14   ar
    28    14    15   ar
    29    15    10   ar
    30     9     1   ar
    31     9     4   ar
    32    26    21   ar
    33    19    20    1
@<TRIPOS>MOLECULE
*****
 30 33 0 0 0
SMALL
GASTEIGER

@<TRIPOS>ATOM
      1 C         140.9186  144.5556  161.2091 C.ar    1  UNL1        0.1036
      2 C         140.0976  145.7661  160.8768 C.ar    1  UNL1        0.1197
      3 N         139.1563  146.0153  162.0178 N.ar    1  UNL1       -0.2234
      4 C         139.3956  144.9587  163.0553 C.ar    1  UNL1        0.1640
      5 C         138.7625  144.7016  164.3906 C.ar    1  UNL1        0.0417
      6 C         139.2185  143.5422  165.2260 C.ar    1  UNL1        0.0393
      7 C         140.3076  142.6401  164.7262 C.ar    1  UNL1        0.1525
      8 N         140.9408  142.8972  163.3909 N.ar    1  UNL1       -0.1486
      9 N         140.4848  144.0565  162.5555 N.ar    1  UNL1       -0.2096
     10 C         144.1211  142.7395  158.6213 C.ar    1  UNL1        0.1807
     11 C         142.9359  143.4080  157.9899 C.ar    1  UNL1        0.0520
     12 C         141.8685  144.0133  158.8525 C.ar    1  UNL1        0.0060
     13 C         141.9861  143.9502  160.3465 C.ar    1  UNL1        0.0196
     14 C         143.1713  143.2818  160.9780 C.ar    1  UNL1        0.0060
     15 C         144.2387  142.6765  160.1153 C.ar    1  UNL1        0.0520
     16 C         144.9032  140.8860  156.9773 C.3     1  UNL1        0.3254
     17 S         145.1885  142.1342  157.7587 S.O     1  UNL1        0.0581
     18 O         146.5413  142.7772  157.6775 O.co2   1  UNL1       -0.6774
     19 N         140.7636  141.4807  165.5617 N.pl3   1  UNL1       -0.2965
     20 H         141.0239  141.6227  166.5005 H       1  UNL1        0.1537
     21 C         140.8231  140.1050  164.9669 C.ar    1  UNL1        0.0507
     22 C         139.8699  139.0446  165.4327 C.ar    1  UNL1        0.0147
     23 C         139.9293  137.6689  164.8378 C.ar    1  UNL1        0.0026
     24 C         140.9420  137.3536  163.7771 C.ar    1  UNL1        0.0184
     25 C         141.8952  138.4139  163.3113 C.ar    1  UNL1        0.1070
     26 C         141.8358  139.7896  163.9061 C.ar    1  UNL1        0.0330
     27 S         142.9079  138.0986  162.2506 S.O2    1  UNL1        0.0105
     28 C         143.9206  137.7833  161.1899 C.3     1  UNL1        0.1816
     29 O         141.8421  137.4341  161.4306 O.2     1  UNL1       -0.1686
     30 O         143.9736  138.7632  163.0706 O.2     1  UNL1       -0.1686
@<TRIPOS>UNITY_ATOM_ATTR
17 1
charge 1
18 1
charge -1
@<TRIPOS>BOND
     1    16    17    1
     2    17    18    2
     3    17    10    1
     4    10    11   ar
     5    11    12   ar
     6    12    13   ar
     7    13     1    1
     8     1     2   ar
     9     2     3   ar
    10     3     4   ar
    11     4     5   ar
    12     5     6   ar
    13     6     7   ar
    14     7    19    1
    15    19    21    1
    16    21    22   ar
    17    22    23   ar
    18    23    24   ar
    19    24    25   ar
    20    25    27    1
    21    27    28    1
    22    27    29    2
    23    27    30    2
    24    25    26   ar
    25     7     8   ar
    26     8     9   ar
    27    13    14   ar
    28    14    15   ar
    29    15    10   ar
    30     9     1   ar
    31     9     4   ar
    32    26    21   ar
    33    19    20    1
