@<TRIPOS>MOLECULE
*****
 29 33 0 0 0
SMALL
GASTEIGER

@<TRIPOS>ATOM
      1 C         139.8695  145.5321  157.2740 C.ar    1  UNL1        0.0821
      2 C         140.4000  145.8320  158.6445 C.ar    1  UNL1        0.0272
      3 C         140.4906  144.7403  159.6691 C.ar    1  UNL1        0.0528
      4 S         140.9676  144.7355  161.0912 S.2     1  UNL1       -0.0514
      5 C         140.8225  143.3409  161.6242 C.ar    1  UNL1        0.1631
      6 N         140.2557  142.4838  160.5314 N.ar    1  UNL1       -0.2225
      7 C         140.0506  143.3486  159.3231 C.ar    1  UNL1        0.1084
      8 C         139.5200  143.0487  157.9526 C.ar    1  UNL1        0.1184
      9 N         139.4295  144.1405  156.9280 N.ar    1  UNL1       -0.2422
     10 C         138.8701  148.9412  155.5048 C.ar    1  UNL1        0.2250
     11 C         138.9607  147.8494  156.5295 C.ar    1  UNL1        0.0592
     12 C         139.7789  146.6239  156.2493 C.ar    1  UNL1        0.0239
     13 C         140.5065  146.4900  154.9444 C.ar    1  UNL1        0.0224
     14 C         140.4160  147.5817  153.9198 C.ar    1  UNL1        0.1021
     15 N         139.5977  148.8074  154.1999 N.ar    1  UNL1       -0.2101
     16 C         138.5785  151.5213  155.4134 C.3     1  UNL1        0.2542
     17 O         138.0519  150.1668  155.7850 O.3     1  UNL1       -0.4561
     18 N         141.1811  142.8837  163.0071 N.pl3   1  UNL1       -0.2881
     19 C         140.1513  142.9127  164.0973 C.3     1  UNL1        0.0940
     20 C         140.5099  142.4555  165.4801 C.3     1  UNL1        0.0375
     21 C         141.8984  141.9693  165.7728 C.3     1  UNL1        0.0609
     22 C         142.9282  141.9403  164.6826 C.3     1  UNL1        0.0375
     23 C         142.5696  142.3975  163.2998 C.3     1  UNL1        0.0940
     24 N         142.2570  141.5121  167.1557 N.3     1  UNL1       -0.2738
     25 C         143.0618  142.4029  168.0550 C.3     1  UNL1        0.0720
     26 C         143.4204  141.9457  169.4379 C.3     1  UNL1        0.0174
     27 C         142.9742  140.5977  169.9215 C.3     1  UNL1        0.0029
     28 C         142.1694  139.7070  169.0222 C.3     1  UNL1        0.0174
     29 C         141.8108  140.1642  167.6393 C.3     1  UNL1        0.0720
@<TRIPOS>BOND
     1    16    17    1
     2    17    10    1
     3    10    11   ar
     4    11    12   ar
     5    12     1    1
     6     1     2   ar
     7     2     3   ar
     8     3     4   ar
     9     4     5   ar
    10     5    18    1
    11    18    19    1
    12    19    20    1
    13    20    21    1
    14    21    24    1
    15    24    25    1
    16    25    26    1
    17    26    27    1
    18    27    28    1
    19    28    29    1
    20    21    22    1
    21    22    23    1
    22     5     6   ar
    23     6     7   ar
    24     7     8   ar
    25     8     9   ar
    26    12    13   ar
    27    13    14   ar
    28    14    15   ar
    29    15    10   ar
    30     9     1   ar
    31     7     3   ar
    32    23    18    1
    33    29    24    1
@<TRIPOS>MOLECULE
*****
 29 33 0 0 0
SMALL
GASTEIGER

@<TRIPOS>ATOM
      1 C         140.0440  141.1806  166.2628 C.ar    1  UNL1        0.0821
      2 C         140.1387  142.4591  165.4840 C.ar    1  UNL1        0.0272
      3 C         140.1387  142.4256  163.9844 C.ar    1  UNL1        0.0528
      4 S         140.2200  143.5146  162.9561 S.2     1  UNL1       -0.0514
      5 C         140.1756  142.8757  161.5997 C.ar    1  UNL1        0.1631
      6 N         140.0669  141.3917  161.7898 N.ar    1  UNL1       -0.2225
      7 C         140.0441  141.1135  163.2636 C.ar    1  UNL1        0.1084
      8 C         139.9494  139.8351  164.0423 C.ar    1  UNL1        0.1184
      9 N         139.9493  139.8686  165.5419 N.ar    1  UNL1       -0.2422
     10 C         140.8120  142.3117  169.9885 C.ar    1  UNL1        0.2250
     11 C         140.8120  142.2782  168.4889 C.ar    1  UNL1        0.0592
     12 C         140.0439  141.2141  167.7624 C.ar    1  UNL1        0.0239
     13 C         139.2757  140.1835  168.5356 C.ar    1  UNL1        0.0224
     14 C         139.2756  140.2170  170.0352 C.ar    1  UNL1        0.1021
     15 N         140.0438  141.2811  170.7617 N.ar    1  UNL1       -0.2101
     16 C         143.0799  143.3531  170.7109 C.3     1  UNL1        0.2542
     17 O         141.5801  143.3757  170.7150 O.3     1  UNL1       -0.4561
     18 N         140.2303  143.5944  160.2843 N.pl3   1  UNL1       -0.2881
     19 C         139.4761  143.0573  159.1042 C.3     1  UNL1        0.0940
     20 C         139.5308  143.7761  157.7888 C.3     1  UNL1        0.0375
     21 C         140.3397  145.0320  157.6534 C.3     1  UNL1        0.0609
     22 C         141.0939  145.5691  158.8335 C.3     1  UNL1        0.0375
     23 C         141.0392  144.8503  160.1489 C.3     1  UNL1        0.0940
     24 N         140.3944  145.7508  156.3380 N.3     1  UNL1       -0.2738
     25 C         141.3249  145.2755  155.2618 C.3     1  UNL1        0.0720
     26 C         141.3796  145.9943  153.9463 C.3     1  UNL1        0.0174
     27 C         140.5039  147.1883  153.7071 C.3     1  UNL1        0.0029
     28 C         139.5734  147.6636  154.7833 C.3     1  UNL1        0.0174
     29 C         139.5187  146.9448  156.0988 C.3     1  UNL1        0.0720
@<TRIPOS>BOND
     1    16    17    1
     2    17    10    1
     3    10    11   ar
     4    11    12   ar
     5    12     1    1
     6     1     2   ar
     7     2     3   ar
     8     3     4   ar
     9     4     5   ar
    10     5    18    1
    11    18    19    1
    12    19    20    1
    13    20    21    1
    14    21    24    1
    15    24    25    1
    16    25    26    1
    17    26    27    1
    18    27    28    1
    19    28    29    1
    20    21    22    1
    21    22    23    1
    22     5     6   ar
    23     6     7   ar
    24     7     8   ar
    25     8     9   ar
    26    12    13   ar
    27    13    14   ar
    28    14    15   ar
    29    15    10   ar
    30     9     1   ar
    31     7     3   ar
    32    23    18    1
    33    29    24    1
@<TRIPOS>MOLECULE
*****
 29 33 0 0 0
SMALL
GASTEIGER

@<TRIPOS>ATOM
      1 C         140.1130  141.2887  166.4718 C.ar    1  UNL1        0.0821
      2 C         140.1478  142.5679  165.6893 C.ar    1  UNL1        0.0272
      3 C         140.1392  142.5303  164.1898 C.ar    1  UNL1        0.0528
      4 S         140.1669  143.6190  163.1583 S.2     1  UNL1       -0.0514
      5 C         140.1407  142.9751  161.8038 C.ar    1  UNL1        0.1631
      6 N         140.0967  141.4884  161.9982 N.ar    1  UNL1       -0.2225
      7 C         140.0958  141.2135  163.4728 C.ar    1  UNL1        0.1084
      8 C         140.0610  139.9343  164.2553 C.ar    1  UNL1        0.1184
      9 N         140.0696  139.9719  165.7548 N.ar    1  UNL1       -0.2422
     10 C         139.3355  140.3589  170.2509 C.ar    1  UNL1        0.2250
     11 C         139.3269  140.3214  168.7513 C.ar    1  UNL1        0.0592
     12 C         140.1217  141.3263  167.9713 C.ar    1  UNL1        0.0239
     13 C         140.9251  142.3688  168.6908 C.ar    1  UNL1        0.0224
     14 C         140.9338  142.4064  170.1903 C.ar    1  UNL1        0.1021
     15 N         140.1389  141.4014  170.9704 N.ar    1  UNL1       -0.2101
     16 C         137.0590  139.2456  170.8237 C.3     1  UNL1        0.2542
     17 O         138.5407  139.3540  171.0309 O.3     1  UNL1       -0.4561
     18 N         140.1558  143.6920  160.4863 N.pl3   1  UNL1       -0.2881
     19 C         140.6567  145.1036  160.4062 C.3     1  UNL1        0.0940
     20 C         140.6718  145.8204  159.0887 C.3     1  UNL1        0.0375
     21 C         140.1860  145.1257  157.8513 C.3     1  UNL1        0.0609
     22 C         139.6851  143.7141  157.9314 C.3     1  UNL1        0.0375
     23 C         139.6700  142.9973  159.2489 C.3     1  UNL1        0.0940
     24 N         140.2011  145.8426  156.5338 N.3     1  UNL1       -0.2738
     25 C         139.3837  147.0863  156.3473 C.3     1  UNL1        0.0720
     26 C         139.3988  147.8032  155.0297 C.3     1  UNL1        0.0174
     27 C         140.2313  147.2763  153.8987 C.3     1  UNL1        0.0029
     28 C         141.0487  146.0326  154.0852 C.3     1  UNL1        0.0174
     29 C         141.0336  145.3157  155.4027 C.3     1  UNL1        0.0720
@<TRIPOS>BOND
     1    16    17    1
     2    17    10    1
     3    10    11   ar
     4    11    12   ar
     5    12     1    1
     6     1     2   ar
     7     2     3   ar
     8     3     4   ar
     9     4     5   ar
    10     5    18    1
    11    18    19    1
    12    19    20    1
    13    20    21    1
    14    21    24    1
    15    24    25    1
    16    25    26    1
    17    26    27    1
    18    27    28    1
    19    28    29    1
    20    21    22    1
    21    22    23    1
    22     5     6   ar
    23     6     7   ar
    24     7     8   ar
    25     8     9   ar
    26    12    13   ar
    27    13    14   ar
    28    14    15   ar
    29    15    10   ar
    30     9     1   ar
    31     7     3   ar
    32    23    18    1
    33    29    24    1
@<TRIPOS>MOLECULE
*****
 29 33 0 0 0
SMALL
GASTEIGER

@<TRIPOS>ATOM
      1 C         141.4466  139.7822  166.8310 C.ar    1  UNL1        0.0821
      2 C         140.6301  139.8216  165.5734 C.ar    1  UNL1        0.0272
      3 C         141.2119  139.3189  164.2855 C.ar    1  UNL1        0.0528
      4 S         140.6510  139.2320  162.8970 S.2     1  UNL1       -0.0514
      5 C         141.7025  138.6362  162.0086 C.ar    1  UNL1        0.1631
      6 N         142.9134  138.3549  162.8481 N.ar    1  UNL1       -0.2225
      7 C         142.6102  138.7768  164.2552 C.ar    1  UNL1        0.1084
      8 C         143.4267  138.7374  165.5129 C.ar    1  UNL1        0.1184
      9 N         142.8449  139.2401  166.8008 N.ar    1  UNL1       -0.2422
     10 C         141.1133  141.6355  170.3246 C.ar    1  UNL1        0.2250
     11 C         141.6951  141.1328  169.0366 C.ar    1  UNL1        0.0592
     12 C         140.8648  140.2850  168.1190 C.ar    1  UNL1        0.0239
     13 C         139.4529  139.9399  168.4894 C.ar    1  UNL1        0.0224
     14 C         138.8711  140.4425  169.7773 C.ar    1  UNL1        0.1021
     15 N         139.7013  141.2904  170.6949 N.ar    1  UNL1       -0.2101
     16 C         143.1250  143.2350  170.7046 C.3     1  UNL1        0.2542
     17 O         141.9435  142.4833  171.2421 O.3     1  UNL1       -0.4561
     18 N         141.5670  138.3687  160.5389 N.pl3   1  UNL1       -0.2881
     19 C         142.7366  137.8417  159.7616 C.3     1  UNL1        0.0940
     20 C         142.6011  137.5742  158.2918 C.3     1  UNL1        0.0375
     21 C         141.2960  137.8337  157.5995 C.3     1  UNL1        0.0609
     22 C         140.1264  138.3607  158.3768 C.3     1  UNL1        0.0375
     23 C         140.2620  138.6282  159.8466 C.3     1  UNL1        0.0940
     24 N         141.1605  137.5662  156.1298 N.3     1  UNL1       -0.2738
     25 C         142.3747  137.5830  155.2493 C.3     1  UNL1        0.0720
     26 C         142.2392  137.3155  153.7796 C.3     1  UNL1        0.0174
     27 C         140.8895  137.0312  153.1903 C.3     1  UNL1        0.0029
     28 C         139.6752  137.0144  154.0708 C.3     1  UNL1        0.0174
     29 C         139.8107  137.2819  155.5405 C.3     1  UNL1        0.0720
@<TRIPOS>BOND
     1    16    17    1
     2    17    10    1
     3    10    11   ar
     4    11    12   ar
     5    12     1    1
     6     1     2   ar
     7     2     3   ar
     8     3     4   ar
     9     4     5   ar
    10     5    18    1
    11    18    19    1
    12    19    20    1
    13    20    21    1
    14    21    24    1
    15    24    25    1
    16    25    26    1
    17    26    27    1
    18    27    28    1
    19    28    29    1
    20    21    22    1
    21    22    23    1
    22     5     6   ar
    23     6     7   ar
    24     7     8   ar
    25     8     9   ar
    26    12    13   ar
    27    13    14   ar
    28    14    15   ar
    29    15    10   ar
    30     9     1   ar
    31     7     3   ar
    32    23    18    1
    33    29    24    1
@<TRIPOS>MOLECULE
*****
 29 33 0 0 0
SMALL
GASTEIGER

@<TRIPOS>ATOM
      1 C         142.6531  141.8642  166.7811 C.ar    1  UNL1        0.0821
      2 C         141.9662  140.8171  165.9554 C.ar    1  UNL1        0.0272
      3 C         142.3581  140.6165  164.5215 C.ar    1  UNL1        0.0528
      4 S         141.8628  139.6698  163.4687 S.2     1  UNL1       -0.0514
      5 C         142.6353  139.9311  162.2098 C.ar    1  UNL1        0.1631
      6 N         143.6081  141.0393  162.4846 N.ar    1  UNL1       -0.2225
      7 C         143.4368  141.4629  163.9133 C.ar    1  UNL1        0.1084
      8 C         144.1237  142.5100  164.7390 C.ar    1  UNL1        0.1184
      9 N         143.7318  142.7106  166.1729 N.ar    1  UNL1       -0.2422
     10 C         140.4834  141.9161  170.1038 C.ar    1  UNL1        0.2250
     11 C         140.8752  141.7154  168.6698 C.ar    1  UNL1        0.0592
     12 C         142.2613  142.0649  168.2151 C.ar    1  UNL1        0.0239
     13 C         143.2555  142.6150  169.1944 C.ar    1  UNL1        0.0224
     14 C         142.8637  142.8156  170.6283 C.ar    1  UNL1        0.1021
     15 N         141.4776  142.4662  171.0831 N.ar    1  UNL1       -0.2101
     16 C         138.4611  140.2851  170.1084 C.3     1  UNL1        0.2542
     17 O         139.0974  141.5667  170.5586 O.3     1  UNL1       -0.4561
     18 N         142.4650  139.2108  160.9052 N.pl3   1  UNL1       -0.2881
     19 C         141.5738  139.7832  159.8431 C.3     1  UNL1        0.0940
     20 C         141.4034  139.0628  158.5385 C.3     1  UNL1        0.0375
     21 C         142.1243  137.7700  158.2959 C.3     1  UNL1        0.0609
     22 C         143.0156  137.1976  159.3579 C.3     1  UNL1        0.0375
     23 C         143.1859  137.9179  160.6626 C.3     1  UNL1        0.0940
     24 N         141.9540  137.0496  156.9913 N.3     1  UNL1       -0.2738
     25 C         143.0607  136.1873  156.4606 C.3     1  UNL1        0.0720
     26 C         142.8904  135.4669  155.1560 C.3     1  UNL1        0.0174
     27 C         141.6134  135.6089  154.3820 C.3     1  UNL1        0.0029
     28 C         140.5067  136.4712  154.9127 C.3     1  UNL1        0.0174
     29 C         140.6770  137.1916  156.2173 C.3     1  UNL1        0.0720
@<TRIPOS>BOND
     1    16    17    1
     2    17    10    1
     3    10    11   ar
     4    11    12   ar
     5    12     1    1
     6     1     2   ar
     7     2     3   ar
     8     3     4   ar
     9     4     5   ar
    10     5    18    1
    11    18    19    1
    12    19    20    1
    13    20    21    1
    14    21    24    1
    15    24    25    1
    16    25    26    1
    17    26    27    1
    18    27    28    1
    19    28    29    1
    20    21    22    1
    21    22    23    1
    22     5     6   ar
    23     6     7   ar
    24     7     8   ar
    25     8     9   ar
    26    12    13   ar
    27    13    14   ar
    28    14    15   ar
    29    15    10   ar
    30     9     1   ar
    31     7     3   ar
    32    23    18    1
    33    29    24    1
@<TRIPOS>MOLECULE
*****
 29 33 0 0 0
SMALL
GASTEIGER

@<TRIPOS>ATOM
      1 C         139.7959  140.8969  164.2428 C.ar    1  UNL1        0.0821
      2 C         141.0440  140.3830  163.5884 C.ar    1  UNL1        0.0272
      3 C         141.4795  140.9377  162.2646 C.ar    1  UNL1        0.0528
      4 S         142.6551  140.6300  161.3851 S.2     1  UNL1       -0.0514
      5 C         142.5692  141.5083  160.1722 C.ar    1  UNL1        0.1631
      6 N         141.3405  142.3589  160.3020 N.ar    1  UNL1       -0.2225
      7 C         140.6671  142.0063  161.5952 C.ar    1  UNL1        0.1084
      8 C         139.4190  142.5201  162.2496 C.ar    1  UNL1        0.1184
      9 N         138.9834  141.9654  163.5734 N.ar    1  UNL1       -0.2422
     10 C         139.5881  140.2518  168.1532 C.ar    1  UNL1        0.2250
     11 C         140.0237  140.8065  166.8293 C.ar    1  UNL1        0.0592
     12 C         139.3603  140.3422  165.5667 C.ar    1  UNL1        0.0239
     13 C         138.2612  139.3232  165.6278 C.ar    1  UNL1        0.0224
     14 C         137.8256  138.7685  166.9516 C.ar    1  UNL1        0.1021
     15 N         138.4890  139.2328  168.2144 N.ar    1  UNL1       -0.2101
     16 C         139.7608  141.9518  170.1102 C.3     1  UNL1        0.2542
     17 O         140.2515  140.7161  169.4158 O.3     1  UNL1       -0.4561
     18 N         143.5412  141.5319  159.0301 N.pl3   1  UNL1       -0.2881
     19 C         143.3911  140.5602  157.8972 C.3     1  UNL1        0.0940
     20 C         144.3632  140.5838  156.7551 C.3     1  UNL1        0.0375
     21 C         145.4854  141.5790  156.7457 C.3     1  UNL1        0.0609
     22 C         145.6355  142.5507  157.8785 C.3     1  UNL1        0.0375
     23 C         144.6634  142.5271  159.0207 C.3     1  UNL1        0.0940
     24 N         146.4574  141.6026  155.6036 N.3     1  UNL1       -0.2738
     25 C         147.8723  142.0451  155.8319 C.3     1  UNL1        0.0720
     26 C         148.8444  142.0687  154.6897 C.3     1  UNL1        0.0174
     27 C         148.4015  141.6498  153.3192 C.3     1  UNL1        0.0029
     28 C         146.9866  141.2073  153.0909 C.3     1  UNL1        0.0174
     29 C         146.0146  141.1837  154.2330 C.3     1  UNL1        0.0720
@<TRIPOS>BOND
     1    16    17    1
     2    17    10    1
     3    10    11   ar
     4    11    12   ar
     5    12     1    1
     6     1     2   ar
     7     2     3   ar
     8     3     4   ar
     9     4     5   ar
    10     5    18    1
    11    18    19    1
    12    19    20    1
    13    20    21    1
    14    21    24    1
    15    24    25    1
    16    25    26    1
    17    26    27    1
    18    27    28    1
    19    28    29    1
    20    21    22    1
    21    22    23    1
    22     5     6   ar
    23     6     7   ar
    24     7     8   ar
    25     8     9   ar
    26    12    13   ar
    27    13    14   ar
    28    14    15   ar
    29    15    10   ar
    30     9     1   ar
    31     7     3   ar
    32    23    18    1
    33    29    24    1
@<TRIPOS>MOLECULE
*****
 29 33 0 0 0
SMALL
GASTEIGER

@<TRIPOS>ATOM
      1 C         140.9570  142.1436  167.1300 C.ar    1  UNL1        0.0821
      2 C         141.9659  141.4781  166.2417 C.ar    1  UNL1        0.0272
      3 C         142.0190  141.8175  164.7815 C.ar    1  UNL1        0.0528
      4 S         142.8975  141.3279  163.6686 S.2     1  UNL1       -0.0514
      5 C         142.4846  142.0301  162.4090 C.ar    1  UNL1        0.1631
      6 N         141.3509  142.9536  162.7435 N.ar    1  UNL1       -0.2225
      7 C         141.0631  142.8222  164.2098 C.ar    1  UNL1        0.1084
      8 C         140.0542  143.4876  165.0982 C.ar    1  UNL1        0.1184
      9 N         140.0011  143.1483  166.5583 N.ar    1  UNL1       -0.2422
     10 C         139.8606  140.4552  170.5502 C.ar    1  UNL1        0.2250
     11 C         139.9137  140.7945  169.0900 C.ar    1  UNL1        0.0592
     12 C         140.9038  141.8043  168.5902 C.ar    1  UNL1        0.0239
     13 C         141.8409  142.4748  169.5506 C.ar    1  UNL1        0.0224
     14 C         141.7878  142.1356  171.0107 C.ar    1  UNL1        0.1021
     15 N         140.7976  141.1257  171.5106 N.ar    1  UNL1       -0.2101
     16 C         137.4589  139.4644  170.5430 C.3     1  UNL1        0.2542
     17 O         138.8704  139.4454  171.0500 O.3     1  UNL1       -0.4561
     18 N         143.0978  141.8418  161.0531 N.pl3   1  UNL1       -0.2881
     19 C         144.2602  142.6908  160.6312 C.3     1  UNL1        0.0940
     20 C         144.8733  142.5025  159.2752 C.3     1  UNL1        0.0375
     21 C         144.3241  141.4652  158.3412 C.3     1  UNL1        0.0609
     22 C         143.1617  140.6162  158.7632 C.3     1  UNL1        0.0375
     23 C         142.5485  140.8045  160.1191 C.3     1  UNL1        0.0940
     24 N         144.9372  141.2769  156.9853 N.3     1  UNL1       -0.2738
     25 C         146.1811  142.0283  156.6137 C.3     1  UNL1        0.0720
     26 C         146.7943  141.8401  155.2578 C.3     1  UNL1        0.0174
     27 C         146.1636  140.9003  154.2734 C.3     1  UNL1        0.0029
     28 C         144.9197  140.1489  154.6449 C.3     1  UNL1        0.0174
     29 C         144.3065  140.3372  156.0009 C.3     1  UNL1        0.0720
@<TRIPOS>BOND
     1    16    17    1
     2    17    10    1
     3    10    11   ar
     4    11    12   ar
     5    12     1    1
     6     1     2   ar
     7     2     3   ar
     8     3     4   ar
     9     4     5   ar
    10     5    18    1
    11    18    19    1
    12    19    20    1
    13    20    21    1
    14    21    24    1
    15    24    25    1
    16    25    26    1
    17    26    27    1
    18    27    28    1
    19    28    29    1
    20    21    22    1
    21    22    23    1
    22     5     6   ar
    23     6     7   ar
    24     7     8   ar
    25     8     9   ar
    26    12    13   ar
    27    13    14   ar
    28    14    15   ar
    29    15    10   ar
    30     9     1   ar
    31     7     3   ar
    32    23    18    1
    33    29    24    1
@<TRIPOS>MOLECULE
*****
 29 33 0 0 0
SMALL
GASTEIGER

@<TRIPOS>ATOM
      1 C         138.7680  140.6572  163.7402 C.ar    1  UNL1        0.0821
      2 C         139.4525  141.8503  163.1419 C.ar    1  UNL1        0.0272
      3 C         139.2806  142.1610  161.6846 C.ar    1  UNL1        0.0528
      4 S         139.8266  143.2594  160.8213 S.2     1  UNL1       -0.0514
      5 C         139.3078  143.0558  159.4287 C.ar    1  UNL1        0.1631
      6 N         138.4411  141.8316  159.4313 N.ar    1  UNL1       -0.2225
      7 C         138.4242  141.2785  160.8255 C.ar    1  UNL1        0.1084
      8 C         137.7398  140.0854  161.4238 C.ar    1  UNL1        0.1184
      9 N         137.9117  139.7747  162.8812 N.ar    1  UNL1       -0.2422
     10 C         140.1710  140.7381  167.4518 C.ar    1  UNL1        0.2250
     11 C         139.9991  141.0488  165.9944 C.ar    1  UNL1        0.0592
     12 C         138.9399  140.3465  165.1976 C.ar    1  UNL1        0.0239
     13 C         138.0526  139.3334  165.8582 C.ar    1  UNL1        0.0224
     14 C         138.2244  139.0227  167.3156 C.ar    1  UNL1        0.1021
     15 N         139.2836  139.7250  168.1124 N.ar    1  UNL1       -0.2101
     16 C         142.2486  140.6438  169.0088 C.3     1  UNL1        0.2542
     17 O         141.2301  141.4404  168.2486 O.3     1  UNL1       -0.4561
     18 N         139.6037  143.9240  158.2418 N.pl3   1  UNL1       -0.2881
     19 C         139.2889  143.4364  156.8587 C.3     1  UNL1        0.0940
     20 C         139.5848  144.3046  155.6718 C.3     1  UNL1        0.0375
     21 C         140.1955  145.6605  155.8681 C.3     1  UNL1        0.0609
     22 C         140.5103  146.1482  157.2512 C.3     1  UNL1        0.0375
     23 C         140.2144  145.2799  158.4381 C.3     1  UNL1        0.0940
     24 N         140.4914  146.5287  154.6812 N.3     1  UNL1       -0.2738
     25 C         141.3506  146.0086  153.5671 C.3     1  UNL1        0.0720
     26 C         141.6465  146.8769  152.3803 C.3     1  UNL1        0.0174
     27 C         141.0833  148.2652  152.3075 C.3     1  UNL1        0.0029
     28 C         140.2241  148.7852  153.4216 C.3     1  UNL1        0.0174
     29 C         139.9282  147.9170  154.6085 C.3     1  UNL1        0.0720
@<TRIPOS>BOND
     1    16    17    1
     2    17    10    1
     3    10    11   ar
     4    11    12   ar
     5    12     1    1
     6     1     2   ar
     7     2     3   ar
     8     3     4   ar
     9     4     5   ar
    10     5    18    1
    11    18    19    1
    12    19    20    1
    13    20    21    1
    14    21    24    1
    15    24    25    1
    16    25    26    1
    17    26    27    1
    18    27    28    1
    19    28    29    1
    20    21    22    1
    21    22    23    1
    22     5     6   ar
    23     6     7   ar
    24     7     8   ar
    25     8     9   ar
    26    12    13   ar
    27    13    14   ar
    28    14    15   ar
    29    15    10   ar
    30     9     1   ar
    31     7     3   ar
    32    23    18    1
    33    29    24    1
@<TRIPOS>MOLECULE
*****
 29 33 0 0 0
SMALL
GASTEIGER

@<TRIPOS>ATOM
      1 C         139.8805  145.3987  157.1820 C.ar    1  UNL1        0.0821
      2 C         140.3811  145.8222  158.5311 C.ar    1  UNL1        0.0272
      3 C         140.3468  144.8586  159.6801 C.ar    1  UNL1        0.0528
      4 S         140.7681  144.9906  161.1136 S.2     1  UNL1       -0.0514
      5 C         140.4937  143.6852  161.7996 C.ar    1  UNL1        0.1631
      6 N         139.9028  142.7463  160.7899 N.ar    1  UNL1       -0.2225
      7 C         139.8120  143.4715  159.4800 C.ar    1  UNL1        0.1084
      8 C         139.3115  143.0480  158.1309 C.ar    1  UNL1        0.1184
      9 N         139.3457  144.0116  156.9819 N.ar    1  UNL1       -0.2422
     10 C         140.8150  147.0419  153.6924 C.ar    1  UNL1        0.2250
     11 C         140.7808  146.0783  154.8415 C.ar    1  UNL1        0.0592
     12 C         139.9148  146.3623  156.0329 C.ar    1  UNL1        0.0239
     13 C         139.0830  147.6098  156.0752 C.ar    1  UNL1        0.0224
     14 C         139.1172  148.5734  154.9262 C.ar    1  UNL1        0.1021
     15 N         139.9832  148.2894  153.7347 N.ar    1  UNL1       -0.2101
     16 C         142.8723  145.8568  152.6375 C.3     1  UNL1        0.2542
     17 O         141.6810  146.7579  152.5010 O.3     1  UNL1       -0.4561
     18 N         140.7629  143.3734  163.2419 N.pl3   1  UNL1       -0.2881
     19 C         139.7875  143.8039  164.2970 C.3     1  UNL1        0.0940
     20 C         140.0567  143.4920  165.7393 C.3     1  UNL1        0.0375
     21 C         141.3013  142.7497  166.1266 C.3     1  UNL1        0.0609
     22 C         142.2766  142.3192  165.0714 C.3     1  UNL1        0.0375
     23 C         142.0074  142.6311  163.6291 C.3     1  UNL1        0.0940
     24 N         141.5705  142.4379  167.5689 N.3     1  UNL1       -0.2738
     25 C         142.9673  142.1321  168.0220 C.3     1  UNL1        0.0720
     26 C         143.2365  141.8203  169.4644 C.3     1  UNL1        0.0174
     27 C         142.1089  141.8142  170.4535 C.3     1  UNL1        0.0029
     28 C         140.7121  142.1201  170.0004 C.3     1  UNL1        0.0174
     29 C         140.4429  142.4319  168.5580 C.3     1  UNL1        0.0720
@<TRIPOS>BOND
     1    16    17    1
     2    17    10    1
     3    10    11   ar
     4    11    12   ar
     5    12     1    1
     6     1     2   ar
     7     2     3   ar
     8     3     4   ar
     9     4     5   ar
    10     5    18    1
    11    18    19    1
    12    19    20    1
    13    20    21    1
    14    21    24    1
    15    24    25    1
    16    25    26    1
    17    26    27    1
    18    27    28    1
    19    28    29    1
    20    21    22    1
    21    22    23    1
    22     5     6   ar
    23     6     7   ar
    24     7     8   ar
    25     8     9   ar
    26    12    13   ar
    27    13    14   ar
    28    14    15   ar
    29    15    10   ar
    30     9     1   ar
    31     7     3   ar
    32    23    18    1
    33    29    24    1
