@<TRIPOS>MOLECULE
*****
 28 32 0 0 0
SMALL
GASTEIGER

@<TRIPOS>ATOM
      1 C         139.5923  138.0188  162.3366 C.ar    1  UNL1       -0.0206
      2 C         140.9794  138.5160  162.0560 C.ar    1  UNL1       -0.0011
      3 C         141.9995  138.5529  163.1551 C.ar    1  UNL1        0.0373
      4 C         141.6325  138.0927  164.5348 C.ar    1  UNL1        0.1477
      5 C         140.2454  137.5955  164.8153 C.ar    1  UNL1        0.0373
      6 C         139.2253  137.5585  163.7162 C.ar    1  UNL1       -0.0011
      7 C         138.5721  137.9818  161.2374 C.3     1  UNL1        0.0437
      8 C         137.5477  139.0719  161.1281 C.3     1  UNL1        0.0769
      9 C         138.4547  144.8639  165.2390 C.3     1  UNL1        0.0948
     10 C         138.6560  144.5730  163.7813 C.2     1  UNL1        0.2262
     11 O         139.1563  145.6492  162.8639 O.2     1  UNL1       -0.2749
     12 N         138.3571  143.2060  163.2411 N.am    1  UNL1       -0.2784
     13 C         137.8537  142.0358  164.0328 C.3     1  UNL1        0.1093
     14 C         137.6946  140.8757  163.0952 C.3     1  UNL1        0.0791
     15 C         138.0997  141.3290  161.7240 C.3     1  UNL1        0.0389
     16 C         138.5091  142.7693  161.8140 C.3     1  UNL1        0.0927
     17 C         138.3500  141.6093  160.8765 C.3     1  UNL1        0.0922
     18 N         137.8466  140.4389  161.6683 N.3     1  UNL1       -0.2706
     19 O         142.6526  138.1296  165.6339 O.3     1  UNL1       -0.4313
     20 C         142.5416  139.1518  166.7261 C.ar    1  UNL1        0.2642
     21 N         142.9985  138.9797  168.1444 N.ar    1  UNL1       -0.1859
     22 C         142.6935  140.2470  168.8867 C.ar    1  UNL1        0.1720
     23 N         142.9201  140.6545  170.3123 N.ar    1  UNL1       -0.2245
     24 C         142.5013  142.0173  170.7784 C.ar    1  UNL1        0.1006
     25 C         141.8559  142.9727  169.8188 C.ar    1  UNL1        0.0213
     26 C         141.6293  142.5652  168.3931 C.ar    1  UNL1        0.0113
     27 C         142.0481  141.2023  167.9271 C.ar    1  UNL1        0.0697
     28 S         141.9542  140.5254  166.5918 S.2     1  UNL1       -0.0267
@<TRIPOS>BOND
     1     9    10    1
     2    10    11    2
     3    10    12   am
     4    12    13    1
     5    13    14    1
     6    14    15    1
     7    15    16    1
     8    16    17    1
     9    17    18    1
    10    18     8    1
    11     8     7    1
    12     7     1    1
    13     1     2   ar
    14     2     3   ar
    15     3     4   ar
    16     4    19    1
    17    19    20    1
    18    20    21   ar
    19    21    22   ar
    20    22    23   ar
    21    23    24   ar
    22    24    25   ar
    23    25    26   ar
    24    26    27   ar
    25    27    28   ar
    26     4     5   ar
    27     5     6   ar
    28    16    12    1
    29     6     1   ar
    30    18    14    1
    31    28    20   ar
    32    27    22   ar
@<TRIPOS>MOLECULE
*****
 28 32 0 0 0
SMALL
GASTEIGER

@<TRIPOS>ATOM
      1 C         138.5700  138.7173  163.0176 C.ar    1  UNL1       -0.0206
      2 C         138.2002  140.0309  163.6404 C.ar    1  UNL1       -0.0011
      3 C         138.1907  140.1769  165.1333 C.ar    1  UNL1        0.0373
      4 C         138.5510  139.0093  166.0033 C.ar    1  UNL1        0.1477
      5 C         138.9209  137.6958  165.3805 C.ar    1  UNL1        0.0373
      6 C         138.9304  137.5498  163.8877 C.ar    1  UNL1       -0.0011
      7 C         138.5796  138.5713  161.5247 C.3     1  UNL1        0.0437
      8 C         139.8808  138.5798  160.7786 C.3     1  UNL1        0.0769
      9 C         145.7431  141.5496  163.6215 C.3     1  UNL1        0.0948
     10 C         144.6267  142.0568  162.7577 C.2     1  UNL1        0.2262
     11 O         144.6114  143.4905  162.3170 O.2     1  UNL1       -0.2749
     12 N         143.5256  141.1303  162.3345 N.am    1  UNL1       -0.2784
     13 C         143.4069  139.6792  162.6951 C.3     1  UNL1        0.1093
     14 C         142.1577  139.1443  162.0598 C.3     1  UNL1        0.0791
     15 C         141.5043  140.2649  161.3066 C.3     1  UNL1        0.0389
     16 C         142.3497  141.4924  161.4763 C.3     1  UNL1        0.0927
     17 C         141.1005  140.9575  160.8411 C.3     1  UNL1        0.0922
     18 N         140.9819  139.5063  161.2018 N.3     1  UNL1       -0.2706
     19 O         138.5415  139.1553  167.4961 O.3     1  UNL1       -0.4313
     20 C         139.5882  139.9882  168.1750 C.ar    1  UNL1        0.2642
     21 N         139.4010  140.7888  169.4295 N.ar    1  UNL1       -0.1859
     22 C         140.7029  141.4621  169.7484 C.ar    1  UNL1        0.1720
     23 N         141.1134  142.3756  170.8650 N.ar    1  UNL1       -0.2245
     24 C         142.5158  142.9046  170.9241 C.ar    1  UNL1        0.1006
     25 C         143.5076  142.5201  169.8666 C.ar    1  UNL1        0.0213
     26 C         143.0971  141.6065  168.7500 C.ar    1  UNL1        0.0113
     27 C         141.6948  141.0776  168.6909 C.ar    1  UNL1        0.0697
     28 S         141.0058  140.1666  167.7185 S.2     1  UNL1       -0.0267
@<TRIPOS>BOND
     1     9    10    1
     2    10    11    2
     3    10    12   am
     4    12    13    1
     5    13    14    1
     6    14    15    1
     7    15    16    1
     8    16    17    1
     9    17    18    1
    10    18     8    1
    11     8     7    1
    12     7     1    1
    13     1     2   ar
    14     2     3   ar
    15     3     4   ar
    16     4    19    1
    17    19    20    1
    18    20    21   ar
    19    21    22   ar
    20    22    23   ar
    21    23    24   ar
    22    24    25   ar
    23    25    26   ar
    24    26    27   ar
    25    27    28   ar
    26     4     5   ar
    27     5     6   ar
    28    16    12    1
    29     6     1   ar
    30    18    14    1
    31    28    20   ar
    32    27    22   ar
@<TRIPOS>MOLECULE
*****
 28 32 0 0 0
SMALL
GASTEIGER

@<TRIPOS>ATOM
      1 C         141.4281  137.9390  162.2868 C.ar    1  UNL1       -0.0206
      2 C         141.8780  137.4824  163.6429 C.ar    1  UNL1       -0.0011
      3 C         140.9920  137.6882  164.8357 C.ar    1  UNL1        0.0373
      4 C         139.6562  138.3506  164.6724 C.ar    1  UNL1        0.1477
      5 C         139.2062  138.8072  163.3162 C.ar    1  UNL1        0.0373
      6 C         140.0922  138.6014  162.1235 C.ar    1  UNL1       -0.0011
      7 C         142.3140  137.7333  161.0939 C.3     1  UNL1        0.0437
      8 C         143.4983  138.6276  160.8761 C.3     1  UNL1        0.0769
      9 C         143.4239  145.1300  163.8732 C.3     1  UNL1        0.0948
     10 C         144.0786  143.8255  164.2190 C.2     1  UNL1        0.2262
     11 O         144.9395  143.7197  165.4428 O.2     1  UNL1       -0.2749
     12 N         143.8724  142.6270  163.3411 N.am    1  UNL1       -0.2784
     13 C         143.0434  142.5812  162.0920 C.3     1  UNL1        0.1093
     14 C         143.1177  141.1895  161.5370 C.3     1  UNL1        0.0791
     15 C         143.9927  140.3752  162.4432 C.3     1  UNL1        0.0389
     16 C         144.4593  141.2636  163.5583 C.3     1  UNL1        0.0927
     17 C         144.5336  139.8720  163.0033 C.3     1  UNL1        0.0922
     18 N         143.7045  139.8262  161.7541 N.3     1  UNL1       -0.2706
     19 O         138.7702  138.5564  165.8652 O.3     1  UNL1       -0.4313
     20 C         139.1393  139.5698  166.9076 C.ar    1  UNL1        0.2642
     21 N         138.8563  139.4663  168.3771 N.ar    1  UNL1       -0.1859
     22 C         139.3982  140.6973  169.0413 C.ar    1  UNL1        0.1720
     23 N         139.4088  141.1428  170.4735 N.ar    1  UNL1       -0.2245
     24 C         140.0374  142.4525  170.8468 C.ar    1  UNL1        0.1006
     25 C         140.6553  143.3168  169.7879 C.ar    1  UNL1        0.0213
     26 C         140.6446  142.8712  168.3557 C.ar    1  UNL1        0.0113
     27 C         140.0161  141.5615  167.9824 C.ar    1  UNL1        0.0697
     28 S         139.8561  140.8647  166.6637 S.2     1  UNL1       -0.0267
@<TRIPOS>BOND
     1     9    10    1
     2    10    11    2
     3    10    12   am
     4    12    13    1
     5    13    14    1
     6    14    15    1
     7    15    16    1
     8    16    17    1
     9    17    18    1
    10    18     8    1
    11     8     7    1
    12     7     1    1
    13     1     2   ar
    14     2     3   ar
    15     3     4   ar
    16     4    19    1
    17    19    20    1
    18    20    21   ar
    19    21    22   ar
    20    22    23   ar
    21    23    24   ar
    22    24    25   ar
    23    25    26   ar
    24    26    27   ar
    25    27    28   ar
    26     4     5   ar
    27     5     6   ar
    28    16    12    1
    29     6     1   ar
    30    18    14    1
    31    28    20   ar
    32    27    22   ar
@<TRIPOS>MOLECULE
*****
 28 32 0 0 0
SMALL
GASTEIGER

@<TRIPOS>ATOM
      1 C         138.7358  140.2522  165.7932 C.ar    1  UNL1       -0.0206
      2 C         138.0309  140.9608  164.6748 C.ar    1  UNL1       -0.0011
      3 C         138.5404  142.2844  164.1864 C.ar    1  UNL1        0.0373
      4 C         139.7549  142.8994  164.8164 C.ar    1  UNL1        0.1477
      5 C         140.4598  142.1907  165.9349 C.ar    1  UNL1        0.0373
      6 C         139.9503  140.8671  166.4232 C.ar    1  UNL1       -0.0011
      7 C         138.2263  138.9286  166.2816 C.3     1  UNL1        0.0437
      8 C         138.5951  137.6688  165.5558 C.3     1  UNL1        0.0769
      9 C         142.3068  138.0889  159.4471 C.3     1  UNL1        0.0948
     10 C         142.6760  137.8569  160.8823 C.2     1  UNL1        0.2262
     11 O         144.1121  137.6515  161.2636 O.2     1  UNL1       -0.2749
     12 N         141.6090  137.8302  161.9363 N.am    1  UNL1       -0.2784
     13 C         140.1387  138.0188  161.7074 C.3     1  UNL1        0.1093
     14 C         139.4460  137.9154  163.0339 C.3     1  UNL1        0.0791
     15 C         140.4882  137.6629  164.0826 C.3     1  UNL1        0.0389
     16 C         141.8251  137.6102  163.4043 C.3     1  UNL1        0.0927
     17 C         141.1325  137.5068  164.7308 C.3     1  UNL1        0.0922
     18 N         139.6621  137.6955  164.5018 N.3     1  UNL1       -0.2706
     19 O         140.2644  144.2229  164.3280 O.3     1  UNL1       -0.4313
     20 C         140.6216  144.4019  162.8822 C.ar    1  UNL1        0.2642
     21 N         141.7946  143.7839  162.1807 N.ar    1  UNL1       -0.1859
     22 C         141.7664  144.2304  160.7489 C.ar    1  UNL1        0.1720
     23 N         142.6709  143.9384  159.5885 N.ar    1  UNL1       -0.2245
     24 C         142.3849  144.5404  158.2448 C.ar    1  UNL1        0.1006
     25 C         141.1945  145.4344  158.0614 C.ar    1  UNL1        0.0213
     26 C         140.2900  145.7264  159.2218 C.ar    1  UNL1        0.0113
     27 C         140.5759  145.1244  160.5656 C.ar    1  UNL1        0.0697
     28 S         139.8684  145.2304  161.8840 S.2     1  UNL1       -0.0267
@<TRIPOS>BOND
     1     9    10    1
     2    10    11    2
     3    10    12   am
     4    12    13    1
     5    13    14    1
     6    14    15    1
     7    15    16    1
     8    16    17    1
     9    17    18    1
    10    18     8    1
    11     8     7    1
    12     7     1    1
    13     1     2   ar
    14     2     3   ar
    15     3     4   ar
    16     4    19    1
    17    19    20    1
    18    20    21   ar
    19    21    22   ar
    20    22    23   ar
    21    23    24   ar
    22    24    25   ar
    23    25    26   ar
    24    26    27   ar
    25    27    28   ar
    26     4     5   ar
    27     5     6   ar
    28    16    12    1
    29     6     1   ar
    30    18    14    1
    31    28    20   ar
    32    27    22   ar
@<TRIPOS>MOLECULE
*****
 28 32 0 0 0
SMALL
GASTEIGER

@<TRIPOS>ATOM
      1 C         139.3330  138.1354  164.6460 C.ar    1  UNL1       -0.0206
      2 C         140.7853  137.8273  164.8598 C.ar    1  UNL1       -0.0011
      3 C         141.6762  137.5587  163.6832 C.ar    1  UNL1        0.0373
      4 C         141.1147  137.5983  162.2928 C.ar    1  UNL1        0.1477
      5 C         139.6623  137.9064  162.0790 C.ar    1  UNL1        0.0373
      6 C         138.7715  138.1750  163.2556 C.ar    1  UNL1       -0.0011
      7 C         138.4421  138.4039  165.8225 C.3     1  UNL1        0.0437
      8 C         138.4830  139.7390  166.5050 C.3     1  UNL1        0.0769
      9 C         142.1989  145.2448  163.8315 C.3     1  UNL1        0.0948
     10 C         140.8123  144.7147  163.6160 C.2     1  UNL1        0.2262
     11 O         139.8904  145.3970  162.6492 O.2     1  UNL1       -0.2749
     12 N         140.3477  143.5024  164.3672 N.am    1  UNL1       -0.2784
     13 C         141.1528  142.7188  165.3609 C.3     1  UNL1        0.1093
     14 C         140.2990  141.5928  165.8645 C.3     1  UNL1        0.0791
     15 C         138.9662  141.6807  165.1819 C.3     1  UNL1        0.0389
     16 C         138.9962  142.8609  164.2565 C.3     1  UNL1        0.0927
     17 C         138.1425  141.7350  164.7600 C.3     1  UNL1        0.0922
     18 N         138.9476  140.9513  165.7538 N.3     1  UNL1       -0.2706
     19 O         142.0055  137.3298  161.1163 O.3     1  UNL1       -0.4313
     20 C         142.6600  138.4707  160.3952 C.ar    1  UNL1        0.2642
     21 N         143.2905  138.4090  159.0356 N.ar    1  UNL1       -0.1859
     22 C         143.8190  139.7738  158.7072 C.ar    1  UNL1        0.1720
     23 N         144.5376  140.3092  157.5044 N.ar    1  UNL1       -0.2245
     24 C         144.9524  141.7499  157.4583 C.ar    1  UNL1        0.1006
     25 C         144.6486  142.6553  158.6150 C.ar    1  UNL1        0.0213
     26 C         143.9299  142.1199  159.8178 C.ar    1  UNL1        0.0113
     27 C         143.5151  140.6792  159.8639 C.ar    1  UNL1        0.0697
     28 S         142.7988  139.8738  160.9071 S.2     1  UNL1       -0.0267
@<TRIPOS>BOND
     1     9    10    1
     2    10    11    2
     3    10    12   am
     4    12    13    1
     5    13    14    1
     6    14    15    1
     7    15    16    1
     8    16    17    1
     9    17    18    1
    10    18     8    1
    11     8     7    1
    12     7     1    1
    13     1     2   ar
    14     2     3   ar
    15     3     4   ar
    16     4    19    1
    17    19    20    1
    18    20    21   ar
    19    21    22   ar
    20    22    23   ar
    21    23    24   ar
    22    24    25   ar
    23    25    26   ar
    24    26    27   ar
    25    27    28   ar
    26     4     5   ar
    27     5     6   ar
    28    16    12    1
    29     6     1   ar
    30    18    14    1
    31    28    20   ar
    32    27    22   ar
@<TRIPOS>MOLECULE
*****
 28 32 0 0 0
SMALL
GASTEIGER

@<TRIPOS>ATOM
      1 C         138.7160  141.0718  164.4120 C.ar    1  UNL1       -0.0206
      2 C         140.1236  141.1828  163.9056 C.ar    1  UNL1       -0.0011
      3 C         140.6119  142.4767  163.3248 C.ar    1  UNL1        0.0373
      4 C         139.6926  143.6596  163.2503 C.ar    1  UNL1        0.1477
      5 C         138.2850  143.5486  163.7567 C.ar    1  UNL1        0.0373
      6 C         137.7967  142.2547  164.3375 C.ar    1  UNL1       -0.0011
      7 C         138.2277  139.7779  164.9928 C.3     1  UNL1        0.0437
      8 C         139.0539  139.0557  166.0154 C.3     1  UNL1        0.0769
      9 C         142.7867  143.0157  170.6687 C.3     1  UNL1        0.0948
     10 C         141.5133  142.2272  170.7507 C.2     1  UNL1        0.2262
     11 O         140.7478  142.1708  172.0393 O.2     1  UNL1       -0.2749
     12 N         141.0055  141.4952  169.5439 N.am    1  UNL1       -0.2784
     13 C         141.6594  141.4596  168.1945 C.3     1  UNL1        0.1093
     14 C         140.8126  140.6126  167.2913 C.3     1  UNL1        0.0791
     15 C         139.6354  140.1248  168.0826 C.3     1  UNL1        0.0389
     16 C         139.7546  140.6702  169.4749 C.3     1  UNL1        0.0927
     17 C         138.9078  139.8233  168.5717 C.3     1  UNL1        0.0922
     18 N         139.5617  139.7877  167.2222 N.3     1  UNL1       -0.2706
     19 O         140.1808  144.9535  162.6695 O.3     1  UNL1       -0.4313
     20 C         140.5055  145.0444  161.2078 C.ar    1  UNL1        0.2642
     21 N         139.7496  145.8389  160.1845 N.ar    1  UNL1       -0.1859
     22 C         140.4200  145.6422  158.8571 C.ar    1  UNL1        0.1720
     23 N         140.1161  146.1790  157.4898 N.ar    1  UNL1       -0.2245
     24 C         140.9823  145.7996  156.3256 C.ar    1  UNL1        0.1006
     25 C         142.1526  144.8834  156.5286 C.ar    1  UNL1        0.0213
     26 C         142.4565  144.3466  157.8958 C.ar    1  UNL1        0.0113
     27 C         141.5902  144.7261  159.0601 C.ar    1  UNL1        0.0697
     28 S         141.6430  144.3566  160.5129 S.2     1  UNL1       -0.0267
@<TRIPOS>BOND
     1     9    10    1
     2    10    11    2
     3    10    12   am
     4    12    13    1
     5    13    14    1
     6    14    15    1
     7    15    16    1
     8    16    17    1
     9    17    18    1
    10    18     8    1
    11     8     7    1
    12     7     1    1
    13     1     2   ar
    14     2     3   ar
    15     3     4   ar
    16     4    19    1
    17    19    20    1
    18    20    21   ar
    19    21    22   ar
    20    22    23   ar
    21    23    24   ar
    22    24    25   ar
    23    25    26   ar
    24    26    27   ar
    25    27    28   ar
    26     4     5   ar
    27     5     6   ar
    28    16    12    1
    29     6     1   ar
    30    18    14    1
    31    28    20   ar
    32    27    22   ar
@<TRIPOS>MOLECULE
*****
 28 32 0 0 0
SMALL
GASTEIGER

@<TRIPOS>ATOM
      1 C         143.7807  139.3467  162.3046 C.ar    1  UNL1       -0.0206
      2 C         144.7981  139.8642  163.2777 C.ar    1  UNL1       -0.0011
      3 C         144.6763  139.5351  164.7362 C.ar    1  UNL1        0.0373
      4 C         143.5371  138.6884  165.2214 C.ar    1  UNL1        0.1477
      5 C         142.5197  138.1709  164.2481 C.ar    1  UNL1        0.0373
      6 C         142.6415  138.5000  162.7898 C.ar    1  UNL1       -0.0011
      7 C         143.9025  139.6758  160.8462 C.3     1  UNL1        0.0437
      8 C         143.3292  140.9565  160.3159 C.3     1  UNL1        0.0769
      9 C         139.1667  144.8172  164.6790 C.3     1  UNL1        0.0948
     10 C         138.9028  143.8915  163.5286 C.2     1  UNL1        0.2262
     11 O         137.4938  143.6256  163.0879 O.2     1  UNL1       -0.2749
     12 N         140.0477  143.2318  162.8189 N.am    1  UNL1       -0.2784
     13 C         141.5020  143.4006  163.1448 C.3     1  UNL1        0.1093
     14 C         142.2926  142.5605  162.1859 C.3     1  UNL1        0.0791
     15 C         141.3268  141.8725  161.2673 C.3     1  UNL1        0.0389
     16 C         139.9393  142.2874  161.6585 C.3     1  UNL1        0.0927
     17 C         140.7298  141.4473  160.6996 C.3     1  UNL1        0.0922
     18 N         142.1842  141.6162  161.0256 N.3     1  UNL1       -0.2706
     19 O         143.4153  138.3593  166.6797 O.3     1  UNL1       -0.4313
     20 C         142.7355  139.3189  167.6109 C.ar    1  UNL1        0.2642
     21 N         142.7730  139.2694  169.1096 N.ar    1  UNL1       -0.1859
     22 C         141.9596  140.4163  169.6319 C.ar    1  UNL1        0.1720
     23 N         141.6411  140.8681  171.0263 N.ar    1  UNL1       -0.2245
     24 C         140.7822  142.0783  171.2447 C.ar    1  UNL1        0.1006
     25 C         140.2420  142.8368  170.0688 C.ar    1  UNL1        0.0213
     26 C         140.5605  142.3850  168.6744 C.ar    1  UNL1        0.0113
     27 C         141.4193  141.1748  168.4559 C.ar    1  UNL1        0.0697
     28 S         141.8989  140.4965  167.2069 S.2     1  UNL1       -0.0267
@<TRIPOS>BOND
     1     9    10    1
     2    10    11    2
     3    10    12   am
     4    12    13    1
     5    13    14    1
     6    14    15    1
     7    15    16    1
     8    16    17    1
     9    17    18    1
    10    18     8    1
    11     8     7    1
    12     7     1    1
    13     1     2   ar
    14     2     3   ar
    15     3     4   ar
    16     4    19    1
    17    19    20    1
    18    20    21   ar
    19    21    22   ar
    20    22    23   ar
    21    23    24   ar
    22    24    25   ar
    23    25    26   ar
    24    26    27   ar
    25    27    28   ar
    26     4     5   ar
    27     5     6   ar
    28    16    12    1
    29     6     1   ar
    30    18    14    1
    31    28    20   ar
    32    27    22   ar
@<TRIPOS>MOLECULE
*****
 28 32 0 0 0
SMALL
GASTEIGER

@<TRIPOS>ATOM
      1 C         138.5842  139.0545  165.5533 C.ar    1  UNL1       -0.0206
      2 C         139.1124  137.7364  165.0702 C.ar    1  UNL1       -0.0011
      3 C         139.2138  137.4628  163.5988 C.ar    1  UNL1        0.0373
      4 C         138.7871  138.5074  162.6105 C.ar    1  UNL1        0.1477
      5 C         138.2589  139.8256  163.0937 C.ar    1  UNL1        0.0373
      6 C         138.1575  140.0992  164.5650 C.ar    1  UNL1       -0.0011
      7 C         138.4828  139.3281  167.0247 C.3     1  UNL1        0.0437
      8 C         139.6552  139.9026  167.7632 C.3     1  UNL1        0.0769
      9 C         145.4643  141.8119  164.0380 C.3     1  UNL1        0.0948
     10 C         144.2927  142.5575  164.6050 C.2     1  UNL1        0.2262
     11 O         144.1899  144.0428  164.4233 O.2     1  UNL1       -0.2749
     12 N         143.2240  141.8176  165.3536 N.am    1  UNL1       -0.2784
     13 C         143.1911  140.3408  165.6137 C.3     1  UNL1        0.1093
     14 C         141.9473  140.0352  166.3946 C.3     1  UNL1        0.0791
     15 C         141.2115  141.3232  166.6170 C.3     1  UNL1        0.0389
     16 C         142.0005  142.4250  165.9737 C.3     1  UNL1        0.0927
     17 C         140.7567  142.1194  166.7544 C.3     1  UNL1        0.0922
     18 N         140.7238  140.6424  167.0146 N.3     1  UNL1       -0.2706
     19 O         138.8885  138.2339  161.1392 O.3     1  UNL1       -0.4313
     20 C         139.9889  138.8591  160.3342 C.ar    1  UNL1        0.2642
     21 N         141.4119  138.3890  160.2714 N.ar    1  UNL1       -0.1859
     22 C         142.1621  139.3036  159.3490 C.ar    1  UNL1        0.1720
     23 N         143.5948  139.3274  158.9055 N.ar    1  UNL1       -0.2245
     24 C         144.0680  140.3866  157.9547 C.ar    1  UNL1        0.1006
     25 C         143.1086  141.4221  157.4474 C.ar    1  UNL1        0.0213
     26 C         141.6759  141.3983  157.8909 C.ar    1  UNL1        0.0113
     27 C         141.2026  140.3391  158.8417 C.ar    1  UNL1        0.0697
     28 S         139.8595  140.0643  159.4506 S.2     1  UNL1       -0.0267
@<TRIPOS>BOND
     1     9    10    1
     2    10    11    2
     3    10    12   am
     4    12    13    1
     5    13    14    1
     6    14    15    1
     7    15    16    1
     8    16    17    1
     9    17    18    1
    10    18     8    1
    11     8     7    1
    12     7     1    1
    13     1     2   ar
    14     2     3   ar
    15     3     4   ar
    16     4    19    1
    17    19    20    1
    18    20    21   ar
    19    21    22   ar
    20    22    23   ar
    21    23    24   ar
    22    24    25   ar
    23    25    26   ar
    24    26    27   ar
    25    27    28   ar
    26     4     5   ar
    27     5     6   ar
    28    16    12    1
    29     6     1   ar
    30    18    14    1
    31    28    20   ar
    32    27    22   ar
@<TRIPOS>MOLECULE
*****
 28 32 0 0 0
SMALL
GASTEIGER

@<TRIPOS>ATOM
      1 C         138.0453  143.1213  163.6945 C.ar    1  UNL1       -0.0206
      2 C         138.1636  143.2947  162.2093 C.ar    1  UNL1       -0.0011
      3 C         138.0503  142.1042  161.3037 C.ar    1  UNL1        0.0373
      4 C         137.8188  140.7403  161.8835 C.ar    1  UNL1        0.1477
      5 C         137.7005  140.5669  163.3688 C.ar    1  UNL1        0.0373
      6 C         137.8138  141.7574  164.2742 C.ar    1  UNL1       -0.0011
      7 C         138.1586  144.3118  164.6000 C.3     1  UNL1        0.0437
      8 C         139.4952  144.7095  165.1524 C.3     1  UNL1        0.0769
      9 C         145.0075  140.2480  164.1631 C.3     1  UNL1        0.0948
     10 C         144.5634  141.5237  163.5109 C.2     1  UNL1        0.2262
     11 O         145.3628  142.1079  162.3841 O.2     1  UNL1       -0.2749
     12 N         143.3199  142.2153  163.9856 N.am    1  UNL1       -0.2784
     13 C         142.4230  141.7531  165.0955 C.3     1  UNL1        0.1093
     14 C         141.3037  142.7427  165.2296 C.3     1  UNL1        0.0791
     15 C         141.5088  143.8165  164.2026 C.3     1  UNL1        0.0389
     16 C         142.7549  143.4906  163.4337 C.3     1  UNL1        0.0927
     17 C         141.6356  144.4802  163.5678 C.3     1  UNL1        0.0922
     18 N         140.7387  144.0179  164.6777 N.3     1  UNL1       -0.2706
     19 O         137.7055  139.5498  160.9780 O.3     1  UNL1       -0.4313
     20 C         138.7976  139.2488  159.9948 C.ar    1  UNL1        0.2642
     21 N         138.7011  139.3769  158.5034 N.ar    1  UNL1       -0.1859
     22 C         140.0217  138.9741  157.9171 C.ar    1  UNL1        0.1720
     23 N         140.5111  138.9019  156.5010 N.ar    1  UNL1       -0.2245
     24 C         141.9131  138.4527  156.2140 C.ar    1  UNL1        0.1006
     25 C         142.8258  138.0757  157.3431 C.ar    1  UNL1        0.0213
     26 C         142.3365  138.1478  158.7592 C.ar    1  UNL1        0.0113
     27 C         140.9344  138.5970  159.0462 C.ar    1  UNL1        0.0697
     28 S         140.1778  138.7668  160.3302 S.2     1  UNL1       -0.0267
@<TRIPOS>BOND
     1     9    10    1
     2    10    11    2
     3    10    12   am
     4    12    13    1
     5    13    14    1
     6    14    15    1
     7    15    16    1
     8    16    17    1
     9    17    18    1
    10    18     8    1
    11     8     7    1
    12     7     1    1
    13     1     2   ar
    14     2     3   ar
    15     3     4   ar
    16     4    19    1
    17    19    20    1
    18    20    21   ar
    19    21    22   ar
    20    22    23   ar
    21    23    24   ar
    22    24    25   ar
    23    25    26   ar
    24    26    27   ar
    25    27    28   ar
    26     4     5   ar
    27     5     6   ar
    28    16    12    1
    29     6     1   ar
    30    18    14    1
    31    28    20   ar
    32    27    22   ar
