@<TRIPOS>MOLECULE
*****
 34 36 0 0 0
SMALL
GASTEIGER

@<TRIPOS>ATOM
      1 C         138.3462  138.4905  161.2754 C.3     1  UNL1        0.1034
      2 C         138.6756  139.1380  165.7164 C.3     1  UNL1        0.1687
      3 C         138.1214  140.2216  164.8396 C.3     1  UNL1        0.0609
      4 C         138.0116  140.0057  163.3592 C.3     1  UNL1        0.0759
      5 N         138.4560  138.7064  162.7557 N.3     1  UNL1       -0.2704
      6 C         139.0102  137.6228  163.6326 C.3     1  UNL1        0.0759
      7 C         139.1200  137.8387  165.1129 C.3     1  UNL1        0.0609
      8 O         138.7854  139.3539  167.1967 O.3     1  UNL1       -0.4782
      9 C         141.1005  141.8148  171.1444 C.3     1  UNL1        0.0329
     10 C         141.1370  141.2925  169.7387 C.ar    1  UNL1        0.0023
     11 C         142.3674  141.4785  168.9012 C.ar    1  UNL1        0.0547
     12 CL        143.5615  142.1867  169.4694 Cl      1  UNL1       -0.0825
     13 C         142.4039  140.9562  167.4956 C.ar    1  UNL1        0.0142
     14 C         141.2099  140.2480  166.9274 C.ar    1  UNL1        0.0386
     15 C         139.9795  140.0621  167.7649 C.ar    1  UNL1        0.1485
     16 C         139.9430  140.5844  169.1705 C.ar    1  UNL1        0.0884
     17 CL        138.7125  140.3984  170.0080 Cl      1  UNL1       -0.0794
     18 C         139.4673  138.9095  160.3712 C.3     1  UNL1        0.1459
     19 O         139.6377  138.2521  159.0338 O.3     1  UNL1       -0.3813
     20 H         140.4037  138.6368  158.5797 H       1  UNL1        0.2105
     21 C         140.4180  139.9858  160.8045 C.3     1  UNL1        0.1204
     22 N         140.0492  141.4287  160.6258 N.am    1  UNL1       -0.2987
     23 C         140.3024  142.4101  161.7316 C.2     1  UNL1        0.2457
     24 O         140.9244  141.9485  163.0161 O.2     1  UNL1       -0.2704
     25 H         139.6410  141.7317  159.7827 H       1  UNL1        0.1498
     26 C         139.9336  143.8530  161.5529 C.2     1  UNL1        0.0842
     27 C         140.4352  144.7639  160.4718 C.2     1  UNL1        0.1242
     28 N         139.8101  146.1122  160.6746 N.2     1  UNL1       -0.1507
     29 N         138.9221  146.0347  161.8810 N.2     1  UNL1       -0.1629
     30 C         138.9984  144.6384  162.4238 C.3     1  UNL1        0.2474
     31 C         138.2678  144.1188  163.6264 C.3     1  UNL1        0.4237
     32 F         137.5372  143.5992  164.8290 F       1  UNL1       -0.1675
     33 F         137.3202  143.3777  162.7305 F       1  UNL1       -0.1675
     34 F         139.2154  144.8599  164.5223 F       1  UNL1       -0.1675
@<TRIPOS>BOND
     1     9    10    1
     2    10    11   ar
     3    11    12    1
     4    11    13   ar
     5    13    14   ar
     6    14    15   ar
     7    15     8    1
     8     8     2    1
     9     2     3    1
    10     3     4    1
    11     4     5    1
    12     5     1    1
    13     1    18    1
    14    18    19    1
    15    18    21    1
    16    21    22    1
    17    22    23   am
    18    23    24    2
    19    23    26    1
    20    26    27    2
    21    27    28    1
    22    28    29    2
    23    29    30    1
    24    30    31    1
    25    31    32    1
    26    31    33    1
    27    31    34    1
    28     5     6    1
    29     6     7    1
    30    15    16   ar
    31    16    17    1
    32    16    10   ar
    33     7     2    1
    34    30    26    1
    35    19    20    1
    36    22    25    1
@<TRIPOS>MOLECULE
*****
 34 36 0 0 0
SMALL
GASTEIGER

@<TRIPOS>ATOM
      1 C         138.7261  137.1510  165.5055 C.3     1  UNL1        0.1034
      2 C         141.0090  138.9343  162.0620 C.3     1  UNL1        0.1687
      3 C         141.7079  138.6507  163.3586 C.3     1  UNL1        0.0609
      4 C         140.9469  138.0562  164.5064 C.3     1  UNL1        0.0759
      5 N         139.4870  137.7454  164.3577 N.3     1  UNL1       -0.2704
      6 C         138.7881  138.0291  163.0611 C.3     1  UNL1        0.0759
      7 C         139.5491  138.6236  161.9133 C.3     1  UNL1        0.0609
      8 O         141.7700  139.5288  160.9142 O.3     1  UNL1       -0.4782
      9 C         141.4176  144.6875  161.4281 C.3     1  UNL1        0.0329
     10 C         141.1949  143.4444  160.6186 C.ar    1  UNL1        0.0023
     11 C         140.5733  143.5376  159.2567 C.ar    1  UNL1        0.0547
     12 CL        140.1744  144.8739  158.7042 Cl      1  UNL1       -0.0825
     13 C         140.3506  142.2946  158.4473 C.ar    1  UNL1        0.0142
     14 C         140.7495  140.9583  158.9997 C.ar    1  UNL1        0.0386
     15 C         141.3711  140.8651  160.3617 C.ar    1  UNL1        0.1485
     16 C         141.5938  142.1082  161.1711 C.ar    1  UNL1        0.0884
     17 CL        142.2154  142.0149  162.5331 Cl      1  UNL1       -0.0794
     18 C         137.9240  138.0365  166.4125 C.3     1  UNL1        0.1459
     19 O         136.8123  137.4567  167.2358 O.3     1  UNL1       -0.3813
     20 H         136.3993  138.1592  167.7620 H       1  UNL1        0.2105
     21 C         138.2337  139.5018  166.4961 C.3     1  UNL1        0.1204
     22 N         137.8330  140.4180  165.3781 N.am    1  UNL1       -0.2987
     23 C         138.8377  141.3598  164.7835 C.2     1  UNL1        0.2457
     24 O         140.2431  141.3853  165.3070 O.2     1  UNL1       -0.2704
     25 H         136.9105  140.4012  165.0345 H       1  UNL1        0.1498
     26 C         138.4370  142.2760  163.6655 C.2     1  UNL1        0.0842
     27 C         138.1421  141.8667  162.2528 C.2     1  UNL1        0.1242
     28 N         137.7838  143.1001  161.4780 N.2     1  UNL1       -0.1507
     29 N         137.8571  144.2717  162.4118 N.2     1  UNL1       -0.1629
     30 C         138.2609  143.7624  163.7637 C.3     1  UNL1        0.2474
     31 C         138.4545  144.5935  164.9973 C.3     1  UNL1        0.4237
     32 F         138.6480  145.4247  166.2309 F       1  UNL1       -0.1675
     33 F         139.9055  144.7614  164.6565 F       1  UNL1       -0.1675
     34 F         137.0034  144.4256  165.3382 F       1  UNL1       -0.1675
@<TRIPOS>BOND
     1     9    10    1
     2    10    11   ar
     3    11    12    1
     4    11    13   ar
     5    13    14   ar
     6    14    15   ar
     7    15     8    1
     8     8     2    1
     9     2     3    1
    10     3     4    1
    11     4     5    1
    12     5     1    1
    13     1    18    1
    14    18    19    1
    15    18    21    1
    16    21    22    1
    17    22    23   am
    18    23    24    2
    19    23    26    1
    20    26    27    2
    21    27    28    1
    22    28    29    2
    23    29    30    1
    24    30    31    1
    25    31    32    1
    26    31    33    1
    27    31    34    1
    28     5     6    1
    29     6     7    1
    30    15    16   ar
    31    16    17    1
    32    16    10   ar
    33     7     2    1
    34    30    26    1
    35    19    20    1
    36    22    25    1
@<TRIPOS>MOLECULE
*****
 34 36 0 0 0
SMALL
GASTEIGER

@<TRIPOS>ATOM
      1 C         138.1632  138.8991  161.1721 C.3     1  UNL1        0.1034
      2 C         138.6630  139.2062  165.6337 C.3     1  UNL1        0.1687
      3 C         138.1401  140.3769  164.8552 C.3     1  UNL1        0.0609
      4 C         137.9735  140.2745  163.3679 C.3     1  UNL1        0.0759
      5 N         138.3298  139.0014  162.6592 N.3     1  UNL1       -0.2704
      6 C         138.8527  137.8307  163.4377 C.3     1  UNL1        0.0759
      7 C         139.0193  137.9331  164.9249 C.3     1  UNL1        0.0609
      8 O         138.8296  139.3085  167.1208 O.3     1  UNL1       -0.4782
      9 C         141.0312  141.8561  171.0784 C.3     1  UNL1        0.0329
     10 C         141.0950  141.3331  169.6740 C.ar    1  UNL1        0.0023
     11 C         142.3234  141.5609  168.8439 C.ar    1  UNL1        0.0547
     12 CL        143.4881  142.3118  169.4183 Cl      1  UNL1       -0.0825
     13 C         142.3873  141.0379  167.4395 C.ar    1  UNL1        0.0142
     14 C         141.2227  140.2871  166.8651 C.ar    1  UNL1        0.0386
     15 C         139.9942  140.0593  167.6952 C.ar    1  UNL1        0.1485
     16 C         139.9304  140.5823  169.0996 C.ar    1  UNL1        0.0884
     17 CL        138.7019  140.3545  169.9297 Cl      1  UNL1       -0.0794
     18 C         139.3709  138.8444  160.2841 C.3     1  UNL1        0.1459
     19 O         139.2211  138.4853  158.8355 O.3     1  UNL1       -0.3813
     20 H         140.0917  138.4958  158.4080 H       1  UNL1        0.2105
     21 C         140.7285  139.1489  160.8448 C.3     1  UNL1        0.1204
     22 N         140.9795  140.4581  161.5326 N.am    1  UNL1       -0.2987
     23 C         141.6702  140.4856  162.8638 C.2     1  UNL1        0.2457
     24 O         142.1101  139.2040  163.5071 O.2     1  UNL1       -0.2704
     25 H         140.6908  141.2993  161.1104 H       1  UNL1        0.1498
     26 C         141.9212  141.7948  163.5516 C.2     1  UNL1        0.0842
     27 C         140.8730  142.7638  164.0124 C.2     1  UNL1        0.1242
     28 N         141.5684  143.9327  164.6450 N.2     1  UNL1       -0.1507
     29 N         143.0463  143.6861  164.5753 N.2     1  UNL1       -0.1629
     30 C         143.2643  142.3648  163.8995 C.3     1  UNL1        0.2474
     31 C         144.5924  141.7257  163.6206 C.3     1  UNL1        0.4237
     32 F         145.9205  141.0866  163.3416 F       1  UNL1       -0.1675
     33 F         144.4730  140.9261  164.8840 F       1  UNL1       -0.1675
     34 F         144.7118  142.5252  162.3571 F       1  UNL1       -0.1675
@<TRIPOS>BOND
     1     9    10    1
     2    10    11   ar
     3    11    12    1
     4    11    13   ar
     5    13    14   ar
     6    14    15   ar
     7    15     8    1
     8     8     2    1
     9     2     3    1
    10     3     4    1
    11     4     5    1
    12     5     1    1
    13     1    18    1
    14    18    19    1
    15    18    21    1
    16    21    22    1
    17    22    23   am
    18    23    24    2
    19    23    26    1
    20    26    27    2
    21    27    28    1
    22    28    29    2
    23    29    30    1
    24    30    31    1
    25    31    32    1
    26    31    33    1
    27    31    34    1
    28     5     6    1
    29     6     7    1
    30    15    16   ar
    31    16    17    1
    32    16    10   ar
    33     7     2    1
    34    30    26    1
    35    19    20    1
    36    22    25    1
@<TRIPOS>MOLECULE
*****
 34 36 0 0 0
SMALL
GASTEIGER

@<TRIPOS>ATOM
      1 C         142.1249  139.7884  169.7439 C.3     1  UNL1        0.1034
      2 C         143.3168  141.3704  165.7033 C.3     1  UNL1        0.1687
      3 C         143.1011  139.8989  165.8988 C.3     1  UNL1        0.0609
      4 C         142.7038  139.3716  167.2457 C.3     1  UNL1        0.0759
      5 N         142.5222  140.3157  168.3970 N.3     1  UNL1       -0.2704
      6 C         142.7378  141.7872  168.2015 C.3     1  UNL1        0.0759
      7 C         143.1351  142.3146  166.8546 C.3     1  UNL1        0.0609
      8 O         143.7141  141.8978  164.3564 O.3     1  UNL1       -0.4782
      9 C         140.6701  145.4734  162.1318 C.3     1  UNL1        0.0329
     10 C         141.1383  144.0526  162.2417 C.ar    1  UNL1        0.0023
     11 C         140.5527  142.9989  161.3492 C.ar    1  UNL1        0.0547
     12 CL        139.4989  143.3659  160.3467 Cl      1  UNL1       -0.0825
     13 C         141.0209  141.5780  161.4590 C.ar    1  UNL1        0.0142
     14 C         142.0747  141.2110  162.4614 C.ar    1  UNL1        0.0386
     15 C         142.6602  142.2648  163.3539 C.ar    1  UNL1        0.1485
     16 C         142.1921  143.6856  163.2441 C.ar    1  UNL1        0.0884
     17 CL        142.7777  144.7394  164.1366 Cl      1  UNL1       -0.0794
     18 C         140.8074  140.1807  170.3441 C.3     1  UNL1        0.1459
     19 O         140.7187  140.5185  171.8028 O.3     1  UNL1       -0.3813
     20 H         139.8032  140.7486  172.0264 H       1  UNL1        0.2105
     21 C         139.5785  140.2352  169.4855 C.3     1  UNL1        0.1204
     22 N         139.6869  140.0135  168.0060 N.am    1  UNL1       -0.2987
     23 C         138.6365  139.2196  167.2876 C.2     1  UNL1        0.2457
     24 O         137.4776  138.6472  168.0487 O.2     1  UNL1       -0.2704
     25 H         140.4476  140.3892  167.5064 H       1  UNL1        0.1498
     26 C         138.7449  138.9979  165.8080 C.2     1  UNL1        0.0842
     27 C         138.8104  137.6676  165.1182 C.2     1  UNL1        0.1242
     28 N         138.9129  137.9152  163.6423 N.2     1  UNL1       -0.1507
     29 N         138.9107  139.3986  163.4200 N.2     1  UNL1       -0.1629
     30 C         138.8069  140.0678  164.7584 C.3     1  UNL1        0.2474
     31 C         138.7713  141.5471  165.0041 C.3     1  UNL1        0.4237
     32 F         138.7356  143.0264  165.2498 F       1  UNL1       -0.1675
     33 F         140.2204  141.5179  165.3900 F       1  UNL1       -0.1675
     34 F         137.3221  141.5763  164.6182 F       1  UNL1       -0.1675
@<TRIPOS>BOND
     1     9    10    1
     2    10    11   ar
     3    11    12    1
     4    11    13   ar
     5    13    14   ar
     6    14    15   ar
     7    15     8    1
     8     8     2    1
     9     2     3    1
    10     3     4    1
    11     4     5    1
    12     5     1    1
    13     1    18    1
    14    18    19    1
    15    18    21    1
    16    21    22    1
    17    22    23   am
    18    23    24    2
    19    23    26    1
    20    26    27    2
    21    27    28    1
    22    28    29    2
    23    29    30    1
    24    30    31    1
    25    31    32    1
    26    31    33    1
    27    31    34    1
    28     5     6    1
    29     6     7    1
    30    15    16   ar
    31    16    17    1
    32    16    10   ar
    33     7     2    1
    34    30    26    1
    35    19    20    1
    36    22    25    1
@<TRIPOS>MOLECULE
*****
 34 36 0 0 0
SMALL
GASTEIGER

@<TRIPOS>ATOM
      1 C         141.7235  143.8577  157.6915 C.3     1  UNL1        0.1034
      2 C         143.5336  140.4627  160.0255 C.3     1  UNL1        0.1687
      3 C         144.0813  141.8512  160.1744 C.3     1  UNL1        0.0609
      4 C         143.4779  142.9829  159.3964 C.3     1  UNL1        0.0759
      5 N         142.3269  142.7261  158.4695 N.3     1  UNL1       -0.2704
      6 C         141.7793  141.3376  158.3205 C.3     1  UNL1        0.0759
      7 C         142.3826  140.2059  159.0985 C.3     1  UNL1        0.0609
      8 O         144.1370  139.3310  160.8034 O.3     1  UNL1       -0.4782
      9 C         141.2161  137.3753  164.6301 C.3     1  UNL1        0.0329
     10 C         142.3804  138.2070  164.1799 C.ar    1  UNL1        0.0023
     11 C         143.2485  138.8926  165.1930 C.ar    1  UNL1        0.0547
     12 CL        142.9523  138.7465  166.6562 Cl      1  UNL1       -0.0825
     13 C         144.4128  139.7243  164.7428 C.ar    1  UNL1        0.0142
     14 C         144.7090  139.8705  163.2797 C.ar    1  UNL1        0.0386
     15 C         143.8408  139.1849  162.2667 C.ar    1  UNL1        0.1485
     16 C         142.6765  138.3532  162.7168 C.ar    1  UNL1        0.0884
     17 CL        141.8084  137.6675  161.7036 Cl      1  UNL1       -0.0794
     18 C         141.6632  145.2316  158.2907 C.3     1  UNL1        0.1459
     19 O         142.5366  146.3246  157.7499 O.3     1  UNL1       -0.3813
     20 H         142.3749  147.1426  158.2455 H       1  UNL1        0.2105
     21 C         140.7295  145.5123  159.4306 C.3     1  UNL1        0.1204
     22 N         139.7040  144.4926  159.8286 N.am    1  UNL1       -0.2987
     23 C         139.8609  143.7325  161.1122 C.2     1  UNL1        0.2457
     24 O         141.0434  143.9920  161.9977 O.2     1  UNL1       -0.2704
     25 H         138.9278  144.3223  159.2474 H       1  UNL1        0.1498
     26 C         138.8353  142.7128  161.5102 C.2     1  UNL1        0.0842
     27 C         138.4535  141.4932  160.7247 C.2     1  UNL1        0.1242
     28 N         137.3937  140.7603  161.4926 N.2     1  UNL1       -0.1507
     29 N         137.1204  141.5269  162.7526 N.2     1  UNL1       -0.1629
     30 C         138.0114  142.7336  162.7634 C.3     1  UNL1        0.2474
     31 C         138.0684  143.7778  163.8388 C.3     1  UNL1        0.4237
     32 F         138.1253  144.8221  164.9141 F       1  UNL1       -0.1675
     33 F         138.7561  142.8035  164.7485 F       1  UNL1       -0.1675
     34 F         137.3807  144.7522  162.9291 F       1  UNL1       -0.1675
@<TRIPOS>BOND
     1     9    10    1
     2    10    11   ar
     3    11    12    1
     4    11    13   ar
     5    13    14   ar
     6    14    15   ar
     7    15     8    1
     8     8     2    1
     9     2     3    1
    10     3     4    1
    11     4     5    1
    12     5     1    1
    13     1    18    1
    14    18    19    1
    15    18    21    1
    16    21    22    1
    17    22    23   am
    18    23    24    2
    19    23    26    1
    20    26    27    2
    21    27    28    1
    22    28    29    2
    23    29    30    1
    24    30    31    1
    25    31    32    1
    26    31    33    1
    27    31    34    1
    28     5     6    1
    29     6     7    1
    30    15    16   ar
    31    16    17    1
    32    16    10   ar
    33     7     2    1
    34    30    26    1
    35    19    20    1
    36    22    25    1
@<TRIPOS>MOLECULE
*****
 34 36 0 0 0
SMALL
GASTEIGER

@<TRIPOS>ATOM
      1 C         138.4300  140.4403  158.0204 C.3     1  UNL1        0.1034
      2 C         138.9176  138.2866  161.9413 C.3     1  UNL1        0.1687
      3 C         137.6257  138.9783  161.6212 C.3     1  UNL1        0.0609
      4 C         137.4632  139.6962  160.3141 C.3     1  UNL1        0.0759
      5 N         138.5926  139.7224  159.3273 N.3     1  UNL1       -0.2704
      6 C         139.8844  139.0306  159.6475 C.3     1  UNL1        0.0759
      7 C         140.0470  138.3127  160.9545 C.3     1  UNL1        0.0609
      8 O         139.0801  137.5687  163.2483 O.3     1  UNL1       -0.4782
      9 C         139.9739  140.5931  167.3780 C.3     1  UNL1        0.0329
     10 C         140.4674  139.6170  166.3515 C.ar    1  UNL1        0.0023
     11 C         141.9014  139.1771  166.3632 C.ar    1  UNL1        0.0547
     12 CL        142.8419  139.7133  167.4016 Cl      1  UNL1       -0.0825
     13 C         142.3949  138.2011  165.3367 C.ar    1  UNL1        0.0142
     14 C         141.4545  137.6649  164.2984 C.ar    1  UNL1        0.0386
     15 C         140.0206  138.1048  164.2866 C.ar    1  UNL1        0.1485
     16 C         139.5270  139.0809  165.3131 C.ar    1  UNL1        0.0884
     17 CL        138.0930  139.5208  165.3013 Cl      1  UNL1       -0.0794
     18 C         138.0874  141.9005  158.0043 C.3     1  UNL1        0.1459
     19 O         136.9984  142.4055  157.1048 O.3     1  UNL1       -0.3813
     20 H         136.9058  143.3646  157.2162 H       1  UNL1        0.2105
     21 C         138.8337  142.8558  158.8878 C.3     1  UNL1        0.1204
     22 N         138.4646  142.9823  160.3361 N.am    1  UNL1       -0.2987
     23 C         139.4642  143.5116  161.3214 C.2     1  UNL1        0.2457
     24 O         140.8329  143.9143  160.8582 O.2     1  UNL1       -0.2704
     25 H         137.5663  142.7180  160.6401 H       1  UNL1        0.1498
     26 C         139.0951  143.6381  162.7697 C.2     1  UNL1        0.0842
     27 C         137.9423  144.4242  163.3204 C.2     1  UNL1        0.1242
     28 N         137.9487  144.2727  164.8127 N.2     1  UNL1       -0.1507
     29 N         139.1055  143.3931  165.1844 N.2     1  UNL1       -0.1629
     30 C         139.8140  143.0009  163.9217 C.3     1  UNL1        0.2474
     31 C         141.0282  142.1252  163.8276 C.3     1  UNL1        0.4237
     32 F         142.2424  141.2494  163.7335 F       1  UNL1       -0.1675
     33 F         141.8002  143.1063  164.6590 F       1  UNL1       -0.1675
     34 F         140.2561  141.1440  162.9962 F       1  UNL1       -0.1675
@<TRIPOS>BOND
     1     9    10    1
     2    10    11   ar
     3    11    12    1
     4    11    13   ar
     5    13    14   ar
     6    14    15   ar
     7    15     8    1
     8     8     2    1
     9     2     3    1
    10     3     4    1
    11     4     5    1
    12     5     1    1
    13     1    18    1
    14    18    19    1
    15    18    21    1
    16    21    22    1
    17    22    23   am
    18    23    24    2
    19    23    26    1
    20    26    27    2
    21    27    28    1
    22    28    29    2
    23    29    30    1
    24    30    31    1
    25    31    32    1
    26    31    33    1
    27    31    34    1
    28     5     6    1
    29     6     7    1
    30    15    16   ar
    31    16    17    1
    32    16    10   ar
    33     7     2    1
    34    30    26    1
    35    19    20    1
    36    22    25    1
@<TRIPOS>MOLECULE
*****
 34 36 0 0 0
SMALL
GASTEIGER

@<TRIPOS>ATOM
      1 C         142.7694  137.8969  161.0746 C.3     1  UNL1        0.1034
      2 C         143.0810  138.6384  165.5021 C.3     1  UNL1        0.1687
      3 C         141.8558  137.9843  164.9356 C.3     1  UNL1        0.0609
      4 C         141.7519  137.7371  163.4597 C.3     1  UNL1        0.0759
      5 N         142.8733  138.1441  162.5504 N.3     1  UNL1       -0.2704
      6 C         144.0985  138.7982  163.1169 C.3     1  UNL1        0.0759
      7 C         144.2024  139.0454  164.5927 C.3     1  UNL1        0.0609
      8 O         143.1849  138.8856  166.9779 O.3     1  UNL1       -0.4782
      9 C         141.0970  141.2094  171.1301 C.3     1  UNL1        0.0329
     10 C         141.4375  141.2208  169.6693 C.ar    1  UNL1        0.0023
     11 C         141.0747  142.4055  168.8238 C.ar    1  UNL1        0.0547
     12 CL        140.3713  143.5789  169.4391 Cl      1  UNL1       -0.0825
     13 C         141.4153  142.4169  167.3631 C.ar    1  UNL1        0.0142
     14 C         142.1186  141.2437  166.7477 C.ar    1  UNL1        0.0386
     15 C         142.4815  140.0590  167.5932 C.ar    1  UNL1        0.1485
     16 C         142.1409  140.0476  169.0540 C.ar    1  UNL1        0.0884
     17 CL        142.5038  138.8628  169.8995 Cl      1  UNL1       -0.0794
     18 C         143.0333  139.0122  160.1069 C.3     1  UNL1        0.1459
     19 O         143.5686  138.7076  158.7392 O.3     1  UNL1       -0.3813
     20 H         143.6813  139.5343  158.2446 H       1  UNL1        0.2105
     21 C         142.7619  140.4322  160.5070 C.3     1  UNL1        0.1204
     22 N         141.3498  140.9010  160.6972 N.am    1  UNL1       -0.2987
     23 C         140.8884  141.3631  162.0476 C.2     1  UNL1        0.2457
     24 O         141.8392  141.3565  163.2077 O.2     1  UNL1       -0.2704
     25 H         140.7258  140.9053  159.9357 H       1  UNL1        0.1498
     26 C         139.4763  141.8319  162.2378 C.2     1  UNL1        0.0842
     27 C         138.9204  143.1552  161.8021 C.2     1  UNL1        0.1242
     28 N         137.4727  143.2009  162.1921 N.2     1  UNL1       -0.1507
     29 N         137.1339  141.9058  162.8688 N.2     1  UNL1       -0.1629
     30 C         138.3722  141.0597  162.8970 C.3     1  UNL1        0.2474
     31 C         138.4863  139.6831  163.4819 C.3     1  UNL1        0.4237
     32 F         138.6004  138.3065  164.0666 F       1  UNL1       -0.1675
     33 F         139.2507  140.2409  164.6456 F       1  UNL1       -0.1675
     34 F         137.7220  139.1253  162.3180 F       1  UNL1       -0.1675
@<TRIPOS>BOND
     1     9    10    1
     2    10    11   ar
     3    11    12    1
     4    11    13   ar
     5    13    14   ar
     6    14    15   ar
     7    15     8    1
     8     8     2    1
     9     2     3    1
    10     3     4    1
    11     4     5    1
    12     5     1    1
    13     1    18    1
    14    18    19    1
    15    18    21    1
    16    21    22    1
    17    22    23   am
    18    23    24    2
    19    23    26    1
    20    26    27    2
    21    27    28    1
    22    28    29    2
    23    29    30    1
    24    30    31    1
    25    31    32    1
    26    31    33    1
    27    31    34    1
    28     5     6    1
    29     6     7    1
    30    15    16   ar
    31    16    17    1
    32    16    10   ar
    33     7     2    1
    34    30    26    1
    35    19    20    1
    36    22    25    1
@<TRIPOS>MOLECULE
*****
 34 36 0 0 0
SMALL
GASTEIGER

@<TRIPOS>ATOM
      1 C         138.3740  138.6498  161.2487 C.3     1  UNL1        0.1034
      2 C         138.6930  139.1227  165.7124 C.3     1  UNL1        0.1687
      3 C         139.1368  137.8472  165.0597 C.3     1  UNL1        0.0609
      4 C         139.0304  137.6895  163.5718 C.3     1  UNL1        0.0759
      5 N         138.4803  138.8075  162.7366 N.3     1  UNL1       -0.2704
      6 C         138.0365  140.0830  163.3893 C.3     1  UNL1        0.0759
      7 C         138.1429  140.2407  164.8771 C.3     1  UNL1        0.0609
      8 O         138.7993  139.2804  167.2003 O.3     1  UNL1       -0.4782
      9 C         141.0281  141.7783  171.1743 C.3     1  UNL1        0.0329
     10 C         141.1051  141.2170  169.7854 C.ar    1  UNL1        0.0023
     11 C         142.3735  141.3432  168.9947 C.ar    1  UNL1        0.0547
     12 CL        143.5649  142.0309  169.5929 Cl      1  UNL1       -0.0825
     13 C         142.4505  140.7819  167.6058 C.ar    1  UNL1        0.0142
     14 C         141.2591  140.0943  167.0077 C.ar    1  UNL1        0.0386
     15 C         139.9908  139.9680  167.7984 C.ar    1  UNL1        0.1485
     16 C         139.9138  140.5294  169.1873 C.ar    1  UNL1        0.0884
     17 CL        138.6453  140.4031  169.9780 Cl      1  UNL1       -0.0794
     18 C         137.6272  139.6673  160.4382 C.3     1  UNL1        0.1459
     19 O         136.1400  139.5540  160.2783 O.3     1  UNL1       -0.3813
     20 H         135.8172  140.2858  159.7295 H       1  UNL1        0.2105
     21 C         138.3675  140.7980  159.7874 C.3     1  UNL1        0.1204
     22 N         139.5900  141.3694  160.4424 N.am    1  UNL1       -0.2987
     23 C         139.4796  142.6007  161.2919 C.2     1  UNL1        0.2457
     24 O         138.1467  143.2605  161.4865 O.2     1  UNL1       -0.2704
     25 H         140.4649  140.9363  160.3147 H       1  UNL1        0.1498
     26 C         140.7021  143.1721  161.9469 C.2     1  UNL1        0.0842
     27 C         141.8439  142.3864  162.5205 C.2     1  UNL1        0.1242
     28 N         142.8449  143.3583  163.0714 N.2     1  UNL1       -0.1507
     29 N         142.3218  144.7446  162.8382 N.2     1  UNL1       -0.1629
     30 C         140.9975  144.6296  162.1432 C.3     1  UNL1        0.2474
     31 C         140.1222  145.7715  161.7191 C.3     1  UNL1        0.4237
     32 F         139.2470  146.9135  161.2949 F       1  UNL1       -0.1675
     33 F         139.4130  145.7185  163.0397 F       1  UNL1       -0.1675
     34 F         140.8314  145.8246  160.3984 F       1  UNL1       -0.1675
@<TRIPOS>BOND
     1     9    10    1
     2    10    11   ar
     3    11    12    1
     4    11    13   ar
     5    13    14   ar
     6    14    15   ar
     7    15     8    1
     8     8     2    1
     9     2     3    1
    10     3     4    1
    11     4     5    1
    12     5     1    1
    13     1    18    1
    14    18    19    1
    15    18    21    1
    16    21    22    1
    17    22    23   am
    18    23    24    2
    19    23    26    1
    20    26    27    2
    21    27    28    1
    22    28    29    2
    23    29    30    1
    24    30    31    1
    25    31    32    1
    26    31    33    1
    27    31    34    1
    28     5     6    1
    29     6     7    1
    30    15    16   ar
    31    16    17    1
    32    16    10   ar
    33     7     2    1
    34    30    26    1
    35    19    20    1
    36    22    25    1
@<TRIPOS>MOLECULE
*****
 34 36 0 0 0
SMALL
GASTEIGER

@<TRIPOS>ATOM
      1 C         138.3278  140.5188  158.3526 C.3     1  UNL1        0.1034
      2 C         139.0880  138.2604  162.1699 C.3     1  UNL1        0.1687
      3 C         137.7383  138.8609  161.9098 C.3     1  UNL1        0.0609
      4 C         137.4849  139.6137  160.6373 C.3     1  UNL1        0.0759
      5 N         138.5812  139.7661  159.6250 N.3     1  UNL1       -0.2704
      6 C         139.9310  139.1656  159.8851 C.3     1  UNL1        0.0759
      7 C         140.1844  138.4128  161.1575 C.3     1  UNL1        0.0609
      8 O         139.3414  137.5077  163.4423 O.3     1  UNL1       -0.4782
      9 C         139.9146  140.7028  167.4997 C.3     1  UNL1        0.0329
     10 C         140.4929  139.7068  166.5388 C.ar    1  UNL1        0.0023
     11 C         141.9361  139.3122  166.6456 C.ar    1  UNL1        0.0547
     12 CL        142.8011  139.9137  167.7134 Cl      1  UNL1       -0.0825
     13 C         142.5144  138.3161  165.6847 C.ar    1  UNL1        0.0142
     14 C         141.6496  137.7146  164.6169 C.ar    1  UNL1        0.0386
     15 C         140.2064  138.1092  164.5101 C.ar    1  UNL1        0.1485
     16 C         139.6280  139.1053  165.4711 C.ar    1  UNL1        0.0884
     17 CL        138.1848  139.4998  165.3642 Cl      1  UNL1       -0.0794
     18 C         138.7684  141.9470  158.2257 C.3     1  UNL1        0.1459
     19 O         139.1767  142.4899  156.8884 O.3     1  UNL1       -0.3813
     20 H         139.4312  143.4213  156.9815 H       1  UNL1        0.2105
     21 C         138.8006  142.8324  159.4362 C.3     1  UNL1        0.1204
     22 N         139.8777  142.6568  160.4653 N.am    1  UNL1       -0.2987
     23 C         139.5143  142.5007  161.9122 C.2     1  UNL1        0.2457
     24 O         138.0738  142.5201  162.3299 O.2     1  UNL1       -0.2704
     25 H         140.8232  142.6441  160.1911 H       1  UNL1        0.1498
     26 C         140.5914  142.3251  162.9413 C.2     1  UNL1        0.0842
     27 C         141.7372  141.3603  162.8626 C.2     1  UNL1        0.1242
     28 N         142.5658  141.5224  164.1025 N.2     1  UNL1       -0.1507
     29 N         141.9320  142.5875  164.9475 N.2     1  UNL1       -0.1629
     30 C         140.7118  143.0836  164.2298 C.3     1  UNL1        0.2474
     31 C         139.7762  144.1507  164.7155 C.3     1  UNL1        0.4237
     32 F         138.8407  145.2180  165.2011 F       1  UNL1       -0.1675
     33 F         138.9053  143.1023  165.3416 F       1  UNL1       -0.1675
     34 F         140.6472  145.1992  164.0892 F       1  UNL1       -0.1675
@<TRIPOS>BOND
     1     9    10    1
     2    10    11   ar
     3    11    12    1
     4    11    13   ar
     5    13    14   ar
     6    14    15   ar
     7    15     8    1
     8     8     2    1
     9     2     3    1
    10     3     4    1
    11     4     5    1
    12     5     1    1
    13     1    18    1
    14    18    19    1
    15    18    21    1
    16    21    22    1
    17    22    23   am
    18    23    24    2
    19    23    26    1
    20    26    27    2
    21    27    28    1
    22    28    29    2
    23    29    30    1
    24    30    31    1
    25    31    32    1
    26    31    33    1
    27    31    34    1
    28     5     6    1
    29     6     7    1
    30    15    16   ar
    31    16    17    1
    32    16    10   ar
    33     7     2    1
    34    30    26    1
    35    19    20    1
    36    22    25    1
