@<TRIPOS>MOLECULE
*****
 34 38 0 0 0
SMALL
GASTEIGER

@<TRIPOS>ATOM
      1 N         138.1871  139.8623  165.4878 N.pl3   1  UNL1       -0.2960
      2 H         137.3567  139.5271  165.8970 H       1  UNL1        0.1537
      3 C         139.4436  139.9476  166.3028 C.ar    1  UNL1        0.1367
      4 C         140.6844  139.2407  165.8442 C.ar    1  UNL1        0.0685
      5 C         141.9409  139.3260  166.6592 C.ar    1  UNL1        0.1345
      6 N         141.9563  140.1183  167.9327 N.ar    1  UNL1       -0.1980
      7 N         143.0382  140.3817  168.9378 N.ar    1  UNL1       -0.1602
      8 C         142.4659  141.2515  170.0176 C.ar    1  UNL1        0.1339
      9 C         141.0303  141.5256  169.6799 C.ar    1  UNL1        0.1250
     10 C         140.7154  140.8252  168.3913 C.ar    1  UNL1        0.1776
     11 N         139.4590  140.7399  167.5764 N.ar    1  UNL1       -0.2109
     12 N         143.1818  138.6190  166.2005 N.pl3   1  UNL1       -0.3153
     13 H         143.6165  137.9577  166.7861 H       1  UNL1        0.1483
     14 C         143.7603  138.9196  164.8496 C.3     1  UNL1        0.1301
     15 C         145.0134  139.5796  164.3554 C.3     1  UNL1        0.1642
     16 O         144.5787  139.3447  162.9392 O.3     1  UNL1       -0.3501
     17 C         143.3256  138.6847  163.4334 C.3     1  UNL1        0.1642
     18 C         140.0771  142.3545  170.4887 C.1     1  UNL1        0.1052
     19 N         139.1238  143.1835  171.2975 N.1     1  UNL1       -0.1907
     20 C         138.0683  142.1644  162.2572 C.ar    1  UNL1        0.0476
     21 C         138.0596  141.7390  163.6956 C.ar    1  UNL1        0.0313
     22 C         138.1959  140.2877  164.0494 C.ar    1  UNL1        0.0784
     23 C         138.3410  139.2618  162.9648 C.ar    1  UNL1        0.1532
     24 F         138.4773  137.8105  163.3186 F       1  UNL1       -0.2029
     25 C         138.3498  139.6872  161.5263 C.ar    1  UNL1        0.0279
     26 C         138.2134  141.1384  161.1726 C.ar    1  UNL1       -0.0067
     27 C         140.4863  143.9401  162.2505 C.3     1  UNL1        0.0949
     28 C         139.1410  144.5035  161.9001 C.2     1  UNL1        0.2266
     29 O         139.0048  145.9549  161.5464 O.2     1  UNL1       -0.2748
     30 N         137.9320  143.6157  161.9034 N.am    1  UNL1       -0.2841
     31 H         137.0491  143.9855  161.6735 H       1  UNL1        0.1548
     32 C         138.2222  141.5638  159.7342 C.3     1  UNL1        0.0236
     33 C         138.0652  141.2308  158.2801 C.3     1  UNL1        0.0047
     34 C         138.3945  142.6336  158.6969 C.3     1  UNL1        0.0047
@<TRIPOS>BOND
     1    27    28    1
     2    28    29    2
     3    28    30   am
     4    30    20    1
     5    20    21   ar
     6    21    22   ar
     7    22     1    1
     8     1     3    1
     9     3     4   ar
    10     4     5   ar
    11     5    12    1
    12    12    14    1
    13    14    15    1
    14    15    16    1
    15    16    17    1
    16     5     6   ar
    17     6     7   ar
    18     7     8   ar
    19     8     9   ar
    20     9    18    1
    21    18    19    3
    22     9    10   ar
    23    10    11   ar
    24    22    23   ar
    25    23    24    1
    26    23    25   ar
    27    25    26   ar
    28    26    32    1
    29    32    33    1
    30    33    34    1
    31    26    20   ar
    32    34    32    1
    33    11     3   ar
    34    17    14    1
    35    10     6   ar
    36    30    31    1
    37     1     2    1
    38    12    13    1
@<TRIPOS>MOLECULE
*****
 34 38 0 0 0
SMALL
GASTEIGER

@<TRIPOS>ATOM
      1 N         144.2807  142.2162  163.8768 N.pl3   1  UNL1       -0.2960
      2 H         145.2230  142.1022  163.6157 H       1  UNL1        0.1537
      3 C         143.3529  143.0135  163.0087 C.ar    1  UNL1        0.1367
      4 C         142.3077  143.8890  163.6337 C.ar    1  UNL1        0.0685
      5 C         141.3799  144.6863  162.7655 C.ar    1  UNL1        0.1345
      6 N         141.4974  144.6078  161.2722 N.ar    1  UNL1       -0.1980
      7 N         140.7295  145.2731  160.1687 N.ar    1  UNL1       -0.1602
      8 C         141.3001  144.8086  158.8616 C.ar    1  UNL1        0.1339
      9 C         142.4207  143.8563  159.1572 C.ar    1  UNL1        0.1250
     10 C         142.5426  143.7322  160.6471 C.ar    1  UNL1        0.1776
     11 N         143.4704  142.9350  161.5153 N.ar    1  UNL1       -0.2109
     12 N         140.3346  145.5619  163.3908 N.pl3   1  UNL1       -0.3153
     13 H         140.4480  146.5398  163.3917 H       1  UNL1        0.1483
     14 C         139.1167  144.9475  164.0144 C.3     1  UNL1        0.1301
     15 C         138.5836  144.8334  165.4119 C.3     1  UNL1        0.1642
     16 O         137.3942  144.0786  164.8966 O.3     1  UNL1       -0.3501
     17 C         137.9272  144.1928  163.4992 C.3     1  UNL1        0.1642
     18 C         143.2702  143.1518  158.1414 C.1     1  UNL1        0.1052
     19 N         144.1197  142.4472  157.1255 N.1     1  UNL1       -0.1907
     20 C         143.0881  141.8081  167.6400 C.ar    1  UNL1        0.0476
     21 C         143.5961  142.4316  166.3739 C.ar    1  UNL1        0.0313
     22 C         143.7726  141.5927  165.1430 C.ar    1  UNL1        0.0784
     23 C         143.4409  140.1303  165.1782 C.ar    1  UNL1        0.1532
     24 F         143.6173  139.2914  163.9473 F       1  UNL1       -0.2029
     25 C         142.9328  139.5067  166.4444 C.ar    1  UNL1        0.0279
     26 C         142.7564  140.3456  167.6752 C.ar    1  UNL1       -0.0067
     27 C         140.3837  142.9077  168.3308 C.3     1  UNL1        0.0949
     28 C         141.5595  143.1968  169.2163 C.2     1  UNL1        0.2266
     29 O         141.3830  144.0358  170.4472 O.2     1  UNL1       -0.2748
     30 N         142.9116  142.6470  168.8709 N.am    1  UNL1       -0.2841
     31 H         143.6833  142.8368  169.4521 H       1  UNL1        0.1548
     32 C         142.2483  139.7221  168.9413 C.3     1  UNL1        0.0236
     33 C         142.4408  138.7831  170.0952 C.3     1  UNL1        0.0047
     34 C         141.1758  139.5811  169.9805 C.3     1  UNL1        0.0047
@<TRIPOS>BOND
     1    27    28    1
     2    28    29    2
     3    28    30   am
     4    30    20    1
     5    20    21   ar
     6    21    22   ar
     7    22     1    1
     8     1     3    1
     9     3     4   ar
    10     4     5   ar
    11     5    12    1
    12    12    14    1
    13    14    15    1
    14    15    16    1
    15    16    17    1
    16     5     6   ar
    17     6     7   ar
    18     7     8   ar
    19     8     9   ar
    20     9    18    1
    21    18    19    3
    22     9    10   ar
    23    10    11   ar
    24    22    23   ar
    25    23    24    1
    26    23    25   ar
    27    25    26   ar
    28    26    32    1
    29    32    33    1
    30    33    34    1
    31    26    20   ar
    32    34    32    1
    33    11     3   ar
    34    17    14    1
    35    10     6   ar
    36    30    31    1
    37     1     2    1
    38    12    13    1
@<TRIPOS>MOLECULE
*****
 34 38 0 0 0
SMALL
GASTEIGER

@<TRIPOS>ATOM
      1 N         138.0239  142.2855  160.5387 N.pl3   1  UNL1       -0.2960
      2 H         137.2452  142.1159  159.9606 H       1  UNL1        0.1537
      3 C         139.1255  143.1880  160.0675 C.ar    1  UNL1        0.1367
      4 C         140.1522  143.6888  161.0395 C.ar    1  UNL1        0.0685
      5 C         141.2538  144.5914  160.5683 C.ar    1  UNL1        0.1345
      6 N         141.3286  144.9930  159.1251 N.ar    1  UNL1       -0.1980
      7 N         142.2919  145.8639  158.3742 N.ar    1  UNL1       -0.1602
      8 C         141.8604  145.9012  156.9381 C.ar    1  UNL1        0.1339
      9 C         140.6305  145.0535  156.8014 C.ar    1  UNL1        0.1250
     10 C         140.3018  144.4921  158.1530 C.ar    1  UNL1        0.1776
     11 N         139.2003  143.5896  158.6242 N.ar    1  UNL1       -0.2109
     12 N         142.2806  145.0922  161.5405 N.pl3   1  UNL1       -0.3153
     13 H         142.2854  146.0401  161.8066 H       1  UNL1        0.1483
     14 C         143.2998  144.1489  162.1072 C.3     1  UNL1        0.1301
     15 C         144.0550  144.0549  163.3998 C.3     1  UNL1        0.1642
     16 O         144.7413  142.8148  162.9089 O.3     1  UNL1       -0.3501
     17 C         143.9861  142.9088  161.6162 C.3     1  UNL1        0.1642
     18 C         139.8639  144.8098  155.5353 C.1     1  UNL1        0.1052
     19 N         139.0973  144.5662  154.2692 N.1     1  UNL1       -0.1907
     20 C         138.6785  139.5836  163.3710 C.ar    1  UNL1        0.0476
     21 C         138.5937  140.2277  162.0190 C.ar    1  UNL1        0.0313
     22 C         138.1087  141.6414  161.8907 C.ar    1  UNL1        0.0784
     23 C         137.7085  142.4109  163.1144 C.ar    1  UNL1        0.1532
     24 F         137.2234  143.8245  162.9862 F       1  UNL1       -0.2029
     25 C         137.7933  141.7668  164.4665 C.ar    1  UNL1        0.0279
     26 C         138.2783  140.3532  164.5948 C.ar    1  UNL1       -0.0067
     27 C         141.5812  139.0354  163.8942 C.3     1  UNL1        0.0949
     28 C         140.6149  137.8959  163.7608 C.2     1  UNL1        0.2266
     29 O         141.1000  136.4823  163.8890 O.2     1  UNL1       -0.2748
     30 N         139.1635  138.1700  163.4992 N.am    1  UNL1       -0.2841
     31 H         138.5293  137.4221  163.4116 H       1  UNL1        0.1548
     32 C         138.3631  139.7091  165.9468 C.3     1  UNL1        0.0236
     33 C         137.8342  138.7344  166.9568 C.3     1  UNL1        0.0047
     34 C         139.0389  139.5682  167.2785 C.3     1  UNL1        0.0047
@<TRIPOS>BOND
     1    27    28    1
     2    28    29    2
     3    28    30   am
     4    30    20    1
     5    20    21   ar
     6    21    22   ar
     7    22     1    1
     8     1     3    1
     9     3     4   ar
    10     4     5   ar
    11     5    12    1
    12    12    14    1
    13    14    15    1
    14    15    16    1
    15    16    17    1
    16     5     6   ar
    17     6     7   ar
    18     7     8   ar
    19     8     9   ar
    20     9    18    1
    21    18    19    3
    22     9    10   ar
    23    10    11   ar
    24    22    23   ar
    25    23    24    1
    26    23    25   ar
    27    25    26   ar
    28    26    32    1
    29    32    33    1
    30    33    34    1
    31    26    20   ar
    32    34    32    1
    33    11     3   ar
    34    17    14    1
    35    10     6   ar
    36    30    31    1
    37     1     2    1
    38    12    13    1
@<TRIPOS>MOLECULE
*****
 34 38 0 0 0
SMALL
GASTEIGER

@<TRIPOS>ATOM
      1 N         144.1221  142.0620  164.5844 N.pl3   1  UNL1       -0.2960
      2 H         145.0644  142.1525  164.8547 H       1  UNL1        0.1537
      3 C         143.1064  141.5525  165.5637 C.ar    1  UNL1        0.1367
      4 C         142.1142  140.5101  165.1411 C.ar    1  UNL1        0.0685
      5 C         141.0985  140.0006  166.1204 C.ar    1  UNL1        0.1345
      6 N         141.0752  140.5338  167.5223 N.ar    1  UNL1       -0.1980
      7 N         140.1980  140.2246  168.6991 N.ar    1  UNL1       -0.1602
      8 C         140.6482  141.0761  169.8490 C.ar    1  UNL1        0.1339
      9 C         141.8036  141.9115  169.3829 C.ar    1  UNL1        0.1250
     10 C         142.0675  141.5763  167.9448 C.ar    1  UNL1        0.1776
     11 N         143.0831  142.0857  166.9655 N.ar    1  UNL1       -0.2109
     12 N         140.1063  138.9581  165.6978 N.pl3   1  UNL1       -0.3153
     13 H         139.3043  138.7916  166.2441 H       1  UNL1        0.1483
     14 C         140.3358  138.1693  164.4428 C.3     1  UNL1        0.1301
     15 C         141.2835  137.0815  164.0321 C.3     1  UNL1        0.1642
     16 O         140.6606  137.0536  162.6679 O.3     1  UNL1       -0.3501
     17 C         139.7129  138.1414  163.0786 C.3     1  UNL1        0.1642
     18 C         142.5619  142.9072  170.2096 C.1     1  UNL1        0.1052
     19 N         143.3202  143.9029  171.0364 N.1     1  UNL1       -0.1907
     20 C         142.4699  144.0448  161.5695 C.ar    1  UNL1        0.0476
     21 C         142.8901  143.6733  162.9607 C.ar    1  UNL1        0.0313
     22 C         143.7020  142.4335  163.1932 C.ar    1  UNL1        0.0784
     23 C         144.0936  141.5653  162.0344 C.ar    1  UNL1        0.1532
     24 F         144.9055  140.3256  162.2668 F       1  UNL1       -0.2029
     25 C         143.6735  141.9369  160.6431 C.ar    1  UNL1        0.0279
     26 C         142.8617  143.1765  160.4107 C.ar    1  UNL1       -0.0067
     27 C         139.4737  143.9089  161.6306 C.3     1  UNL1        0.0949
     28 C         140.1600  145.2165  161.3677 C.2     1  UNL1        0.2266
     29 O         139.3480  146.4563  161.1353 O.2     1  UNL1       -0.2748
     30 N         141.6581  145.2845  161.3371 N.am    1  UNL1       -0.2841
     31 H         142.1085  146.1428  161.1646 H       1  UNL1        0.1548
     32 C         142.4415  143.5481  159.0195 C.3     1  UNL1        0.0236
     33 C         142.6573  144.3433  157.7661 C.3     1  UNL1        0.0047
     34 C         141.4981  143.3963  157.8633 C.3     1  UNL1        0.0047
@<TRIPOS>BOND
     1    27    28    1
     2    28    29    2
     3    28    30   am
     4    30    20    1
     5    20    21   ar
     6    21    22   ar
     7    22     1    1
     8     1     3    1
     9     3     4   ar
    10     4     5   ar
    11     5    12    1
    12    12    14    1
    13    14    15    1
    14    15    16    1
    15    16    17    1
    16     5     6   ar
    17     6     7   ar
    18     7     8   ar
    19     8     9   ar
    20     9    18    1
    21    18    19    3
    22     9    10   ar
    23    10    11   ar
    24    22    23   ar
    25    23    24    1
    26    23    25   ar
    27    25    26   ar
    28    26    32    1
    29    32    33    1
    30    33    34    1
    31    26    20   ar
    32    34    32    1
    33    11     3   ar
    34    17    14    1
    35    10     6   ar
    36    30    31    1
    37     1     2    1
    38    12    13    1
@<TRIPOS>MOLECULE
*****
 34 38 0 0 0
SMALL
GASTEIGER

@<TRIPOS>ATOM
      1 N         140.0175  143.6631  165.3757 N.pl3   1  UNL1       -0.2960
      2 H         139.4842  144.2667  165.9418 H       1  UNL1        0.1537
      3 C         140.7470  142.5063  165.9919 C.ar    1  UNL1        0.1367
      4 C         141.4572  141.5159  165.1176 C.ar    1  UNL1        0.0685
      5 C         142.1868  140.3591  165.7338 C.ar    1  UNL1        0.1345
      6 N         142.2059  140.1928  167.2244 N.ar    1  UNL1       -0.1980
      7 N         142.8365  139.1602  168.1111 N.ar    1  UNL1       -0.1602
      8 C         142.5160  139.5125  169.5334 C.ar    1  UNL1        0.1339
      9 C         141.6873  140.7628  169.5259 C.ar    1  UNL1        0.1250
     10 C         141.4956  141.1832  168.0988 C.ar    1  UNL1        0.1776
     11 N         140.7662  142.3400  167.4825 N.ar    1  UNL1       -0.2109
     12 N         142.8970  139.3686  164.8594 N.pl3   1  UNL1       -0.3153
     13 H         143.8794  139.3831  164.7965 H       1  UNL1        0.1483
     14 C         142.1106  138.3562  164.0808 C.3     1  UNL1        0.1301
     15 C         141.2377  137.1893  164.4365 C.3     1  UNL1        0.1642
     16 O         140.9982  136.9242  162.9797 O.3     1  UNL1       -0.3501
     17 C         141.8710  138.0911  162.6240 C.3     1  UNL1        0.1642
     18 C         141.1453  141.4687  170.7333 C.1     1  UNL1        0.1052
     19 N         140.6034  142.1746  171.9408 N.1     1  UNL1       -0.1907
     20 C         139.2390  143.4306  161.4910 C.ar    1  UNL1        0.0476
     21 C         139.1561  143.1936  162.9698 C.ar    1  UNL1        0.0313
     22 C         140.1004  143.9000  163.8968 C.ar    1  UNL1        0.0784
     23 C         141.1277  144.8435  163.3449 C.ar    1  UNL1        0.1532
     24 F         142.0720  145.5499  164.2718 F       1  UNL1       -0.2029
     25 C         141.2106  145.0805  161.8660 C.ar    1  UNL1        0.0279
     26 C         140.2664  144.3741  160.9391 C.ar    1  UNL1       -0.0067
     27 C         139.9854  140.7647  160.3352 C.3     1  UNL1        0.0949
     28 C         138.6679  141.3912  159.9862 C.2     1  UNL1        0.2266
     29 O         137.7236  140.6846  159.0593 O.2     1  UNL1       -0.2748
     30 N         138.2947  142.7241  160.5641 N.am    1  UNL1       -0.2841
     31 H         137.4300  143.1352  160.3350 H       1  UNL1        0.1548
     32 C         140.3493  144.6110  159.4603 C.3     1  UNL1        0.0236
     33 C         140.3117  145.5498  158.2910 C.3     1  UNL1        0.0047
     34 C         140.5306  144.0827  158.0682 C.3     1  UNL1        0.0047
@<TRIPOS>BOND
     1    27    28    1
     2    28    29    2
     3    28    30   am
     4    30    20    1
     5    20    21   ar
     6    21    22   ar
     7    22     1    1
     8     1     3    1
     9     3     4   ar
    10     4     5   ar
    11     5    12    1
    12    12    14    1
    13    14    15    1
    14    15    16    1
    15    16    17    1
    16     5     6   ar
    17     6     7   ar
    18     7     8   ar
    19     8     9   ar
    20     9    18    1
    21    18    19    3
    22     9    10   ar
    23    10    11   ar
    24    22    23   ar
    25    23    24    1
    26    23    25   ar
    27    25    26   ar
    28    26    32    1
    29    32    33    1
    30    33    34    1
    31    26    20   ar
    32    34    32    1
    33    11     3   ar
    34    17    14    1
    35    10     6   ar
    36    30    31    1
    37     1     2    1
    38    12    13    1
@<TRIPOS>MOLECULE
*****
 34 38 0 0 0
SMALL
GASTEIGER

@<TRIPOS>ATOM
      1 N         145.0776  142.8676  162.6294 N.pl3   1  UNL1       -0.2960
      2 H         146.0081  143.1828  162.6938 H       1  UNL1        0.1537
      3 C         144.3271  143.0045  161.3378 C.ar    1  UNL1        0.1367
      4 C         144.8258  142.3131  160.1037 C.ar    1  UNL1        0.0685
      5 C         144.0752  142.4501  158.8121 C.ar    1  UNL1        0.1345
      6 N         142.8260  143.2784  158.7549 N.ar    1  UNL1       -0.1980
      7 N         141.8820  143.5947  157.6329 N.ar    1  UNL1       -0.1602
      8 C         140.7999  144.4816  158.1737 C.ar    1  UNL1        0.1339
      9 C         141.0751  144.7134  159.6300 C.ar    1  UNL1        0.1250
     10 C         142.3273  143.9697  159.9891 C.ar    1  UNL1        0.1776
     11 N         143.0779  143.8328  161.2806 N.ar    1  UNL1       -0.2109
     12 N         144.5740  141.7587  157.5779 N.pl3   1  UNL1       -0.3153
     13 H         144.0091  141.0916  157.1250 H       1  UNL1        0.1483
     14 C         145.9334  142.0837  157.0337 C.3     1  UNL1        0.1301
     15 C         146.7125  141.6820  155.8164 C.3     1  UNL1        0.1642
     16 O         147.8561  142.5432  156.2639 O.3     1  UNL1       -0.3501
     17 C         147.0771  142.9449  157.4812 C.3     1  UNL1        0.1642
     18 C         140.2440  145.5431  160.5631 C.1     1  UNL1        0.1052
     19 N         139.4129  146.3728  161.4963 N.1     1  UNL1       -0.1907
     20 C         143.3661  140.1814  164.9969 C.ar    1  UNL1        0.0476
     21 C         144.0332  140.7986  163.8037 C.ar    1  UNL1        0.0313
     22 C         144.4105  142.2503  163.8226 C.ar    1  UNL1        0.0784
     23 C         144.1205  143.0847  165.0349 C.ar    1  UNL1        0.1532
     24 F         144.4977  144.5364  165.0539 F       1  UNL1       -0.2029
     25 C         143.4533  142.4675  166.2282 C.ar    1  UNL1        0.0279
     26 C         143.0761  141.0159  166.2092 C.ar    1  UNL1       -0.0067
     27 C         140.6184  139.3570  164.1191 C.3     1  UNL1        0.0949
     28 C         141.6150  138.3176  164.5390 C.2     1  UNL1        0.2266
     29 O         141.2377  136.8659  164.5199 O.2     1  UNL1       -0.2748
     30 N         142.9888  138.7297  164.9779 N.am    1  UNL1       -0.2841
     31 H         143.6429  138.0474  165.2535 H       1  UNL1        0.1548
     32 C         142.4090  140.3986  167.4025 C.3     1  UNL1        0.0236
     33 C         142.5029  139.7096  168.7315 C.3     1  UNL1        0.0047
     34 C         141.1594  140.0186  168.1402 C.3     1  UNL1        0.0047
@<TRIPOS>BOND
     1    27    28    1
     2    28    29    2
     3    28    30   am
     4    30    20    1
     5    20    21   ar
     6    21    22   ar
     7    22     1    1
     8     1     3    1
     9     3     4   ar
    10     4     5   ar
    11     5    12    1
    12    12    14    1
    13    14    15    1
    14    15    16    1
    15    16    17    1
    16     5     6   ar
    17     6     7   ar
    18     7     8   ar
    19     8     9   ar
    20     9    18    1
    21    18    19    3
    22     9    10   ar
    23    10    11   ar
    24    22    23   ar
    25    23    24    1
    26    23    25   ar
    27    25    26   ar
    28    26    32    1
    29    32    33    1
    30    33    34    1
    31    26    20   ar
    32    34    32    1
    33    11     3   ar
    34    17    14    1
    35    10     6   ar
    36    30    31    1
    37     1     2    1
    38    12    13    1
@<TRIPOS>MOLECULE
*****
 34 38 0 0 0
SMALL
GASTEIGER

@<TRIPOS>ATOM
      1 N         139.8903  143.9763  163.1327 N.pl3   1  UNL1       -0.2960
      2 H         139.5788  144.8624  163.4281 H       1  UNL1        0.1537
      3 C         140.7954  143.8578  161.9424 C.ar    1  UNL1        0.1367
      4 C         141.9970  142.9620  162.0001 C.ar    1  UNL1        0.0685
      5 C         142.9021  142.8435  160.8098 C.ar    1  UNL1        0.1345
      6 N         142.6053  143.6208  159.5617 N.ar    1  UNL1       -0.1980
      7 N         143.3107  143.7057  158.2406 N.ar    1  UNL1       -0.1602
      8 C         142.5449  144.6540  157.3664 C.ar    1  UNL1        0.1339
      9 C         141.3662  145.1551  158.1472 C.ar    1  UNL1        0.1250
     10 C         141.4036  144.5166  159.5040 C.ar    1  UNL1        0.1776
     11 N         140.4986  144.6351  160.6943 N.ar    1  UNL1       -0.2109
     12 N         144.1039  141.9477  160.8676 N.pl3   1  UNL1       -0.3153
     13 H         144.5637  141.6866  160.0371 H       1  UNL1        0.1483
     14 C         144.6051  141.4496  162.1907 C.3     1  UNL1        0.1301
     15 C         144.4605  140.1749  162.9681 C.3     1  UNL1        0.1642
     16 O         145.3139  140.7452  164.0619 O.3     1  UNL1       -0.3501
     17 C         145.4585  142.0198  163.2846 C.3     1  UNL1        0.1642
     18 C         140.3318  146.1246  157.6572 C.1     1  UNL1        0.1052
     19 N         139.2974  147.0941  157.1672 N.1     1  UNL1       -0.1907
     20 C         139.6742  141.1604  165.9210 C.ar    1  UNL1        0.0476
     21 C         140.1047  142.3919  165.1806 C.ar    1  UNL1        0.0313
     22 C         139.4598  142.7449  163.8731 C.ar    1  UNL1        0.0784
     23 C         138.3844  141.8663  163.3060 C.ar    1  UNL1        0.1532
     24 F         137.7395  142.2192  161.9985 F       1  UNL1       -0.2029
     25 C         137.9539  140.6347  164.0463 C.ar    1  UNL1        0.0279
     26 C         138.5988  140.2818  165.3538 C.ar    1  UNL1       -0.0067
     27 C         142.0325  139.3070  165.9783 C.3     1  UNL1        0.0949
     28 C         141.4983  139.8808  167.2571 C.2     1  UNL1        0.2266
     29 O         142.1432  139.5278  168.5646 O.2     1  UNL1       -0.2748
     30 N         140.3191  140.8075  167.2285 N.am    1  UNL1       -0.2841
     31 H         139.9685  141.1840  168.0678 H       1  UNL1        0.1548
     32 C         138.1683  139.0504  166.0941 C.3     1  UNL1        0.0236
     33 C         137.4858  138.4120  167.2675 C.3     1  UNL1        0.0047
     34 C         138.1052  137.5556  166.2031 C.3     1  UNL1        0.0047
@<TRIPOS>BOND
     1    27    28    1
     2    28    29    2
     3    28    30   am
     4    30    20    1
     5    20    21   ar
     6    21    22   ar
     7    22     1    1
     8     1     3    1
     9     3     4   ar
    10     4     5   ar
    11     5    12    1
    12    12    14    1
    13    14    15    1
    14    15    16    1
    15    16    17    1
    16     5     6   ar
    17     6     7   ar
    18     7     8   ar
    19     8     9   ar
    20     9    18    1
    21    18    19    3
    22     9    10   ar
    23    10    11   ar
    24    22    23   ar
    25    23    24    1
    26    23    25   ar
    27    25    26   ar
    28    26    32    1
    29    32    33    1
    30    33    34    1
    31    26    20   ar
    32    34    32    1
    33    11     3   ar
    34    17    14    1
    35    10     6   ar
    36    30    31    1
    37     1     2    1
    38    12    13    1
@<TRIPOS>MOLECULE
*****
 34 38 0 0 0
SMALL
GASTEIGER

@<TRIPOS>ATOM
      1 N         138.7984  141.7291  165.4898 N.pl3   1  UNL1       -0.2960
      2 H         137.8805  141.7575  165.8446 H       1  UNL1        0.1537
      3 C         139.8698  140.9935  166.2391 C.ar    1  UNL1        0.1367
      4 C         140.7432  140.0066  165.5230 C.ar    1  UNL1        0.0685
      5 C         141.8145  139.2711  166.2723 C.ar    1  UNL1        0.1345
      6 N         142.0123  139.5227  167.7378 N.ar    1  UNL1       -0.1980
      7 N         142.9790  138.9520  168.7326 N.ar    1  UNL1       -0.1602
      8 C         142.7030  139.5863  170.0636 C.ar    1  UNL1        0.1339
      9 C         141.5657  140.5490  169.8913 C.ar    1  UNL1        0.1250
     10 C         141.1388  140.5097  168.4539 C.ar    1  UNL1        0.1776
     11 N         140.0675  141.2451  167.7046 N.ar    1  UNL1       -0.2109
     12 N         142.6880  138.2841  165.5561 N.pl3   1  UNL1       -0.3153
     13 H         143.0325  137.4947  166.0331 H       1  UNL1        0.1483
     14 C         143.0365  138.4997  164.1132 C.3     1  UNL1        0.1301
     15 C         142.4067  138.1294  162.8032 C.3     1  UNL1        0.1642
     16 O         143.5293  138.8045  162.0726 O.3     1  UNL1       -0.3501
     17 C         144.1591  139.1749  163.3826 C.3     1  UNL1        0.1642
     18 C         140.9614  141.4014  170.9676 C.1     1  UNL1        0.1052
     19 N         140.3571  142.2537  172.0438 N.1     1  UNL1       -0.1907
     20 C         140.6778  143.9735  162.8101 C.ar    1  UNL1        0.0476
     21 C         140.3505  143.2814  164.1000 C.ar    1  UNL1        0.0313
     22 C         139.1257  142.4211  164.1999 C.ar    1  UNL1        0.0784
     23 C         138.2283  142.2530  163.0098 C.ar    1  UNL1        0.1532
     24 F         137.0036  141.3927  163.1096 F       1  UNL1       -0.2029
     25 C         138.5556  142.9451  161.7198 C.ar    1  UNL1        0.0279
     26 C         139.7803  143.8053  161.6200 C.ar    1  UNL1       -0.0067
     27 C         143.3625  142.7140  162.3567 C.3     1  UNL1        0.0949
     28 C         143.2449  144.2040  162.4836 C.2     1  UNL1        0.2266
     29 O         144.4697  145.0642  162.3837 O.2     1  UNL1       -0.2748
     30 N         141.9026  144.8338  162.7103 N.am    1  UNL1       -0.2841
     31 H         141.8254  145.8117  162.7936 H       1  UNL1        0.1548
     32 C         140.1076  144.4974  160.3301 C.3     1  UNL1        0.0236
     33 C         140.3166  145.7621  159.5511 C.3     1  UNL1        0.0047
     34 C         140.4656  144.4315  158.8749 C.3     1  UNL1        0.0047
@<TRIPOS>BOND
     1    27    28    1
     2    28    29    2
     3    28    30   am
     4    30    20    1
     5    20    21   ar
     6    21    22   ar
     7    22     1    1
     8     1     3    1
     9     3     4   ar
    10     4     5   ar
    11     5    12    1
    12    12    14    1
    13    14    15    1
    14    15    16    1
    15    16    17    1
    16     5     6   ar
    17     6     7   ar
    18     7     8   ar
    19     8     9   ar
    20     9    18    1
    21    18    19    3
    22     9    10   ar
    23    10    11   ar
    24    22    23   ar
    25    23    24    1
    26    23    25   ar
    27    25    26   ar
    28    26    32    1
    29    32    33    1
    30    33    34    1
    31    26    20   ar
    32    34    32    1
    33    11     3   ar
    34    17    14    1
    35    10     6   ar
    36    30    31    1
    37     1     2    1
    38    12    13    1
@<TRIPOS>MOLECULE
*****
 34 38 0 0 0
SMALL
GASTEIGER

@<TRIPOS>ATOM
      1 N         143.6680  141.5882  163.8477 N.pl3   1  UNL1       -0.2960
      2 H         144.5172  141.1115  163.7035 H       1  UNL1        0.1537
      3 C         143.0998  142.4536  162.7621 C.ar    1  UNL1        0.1367
      4 C         142.0013  143.4256  163.0756 C.ar    1  UNL1        0.0685
      5 C         141.4331  144.2910  161.9900 C.ar    1  UNL1        0.1345
      6 N         141.9636  144.1842  160.5910 N.ar    1  UNL1       -0.1980
      7 N         141.6034  144.9012  159.3236 N.ar    1  UNL1       -0.1602
      8 C         142.4794  144.3721  158.2269 C.ar    1  UNL1        0.1339
      9 C         143.3809  143.3283  158.8165 C.ar    1  UNL1        0.1250
     10 C         143.0622  143.2121  160.2776 C.ar    1  UNL1        0.1776
     11 N         143.6303  142.3468  161.3632 N.ar    1  UNL1       -0.2109
     12 N         140.3345  145.2631  162.3035 N.pl3   1  UNL1       -0.3153
     13 H         140.3465  146.1641  161.9069 H       1  UNL1        0.1483
     14 C         139.2178  144.8623  163.2212 C.3     1  UNL1        0.1301
     15 C         139.0138  144.8640  164.7073 C.3     1  UNL1        0.1642
     16 O         137.6385  144.2956  164.5193 O.3     1  UNL1       -0.3501
     17 C         137.8425  144.2939  163.0332 C.3     1  UNL1        0.1642
     18 C         144.4190  142.5392  158.0751 C.1     1  UNL1        0.1052
     19 N         145.4571  141.7500  157.3337 N.1     1  UNL1       -0.1907
     20 C         141.1190  140.2976  166.6023 C.ar    1  UNL1        0.0476
     21 C         141.8448  140.4366  165.2970 C.ar    1  UNL1        0.0313
     22 C         142.9421  141.4492  165.1530 C.ar    1  UNL1        0.0784
     23 C         143.3136  142.3227  166.3145 C.ar    1  UNL1        0.1532
     24 F         144.4109  143.3352  166.1706 F       1  UNL1       -0.2029
     25 C         142.5878  142.1837  167.6199 C.ar    1  UNL1        0.0279
     26 C         141.4905  141.1712  167.7637 C.ar    1  UNL1       -0.0067
     27 C         138.4216  140.8282  165.4013 C.3     1  UNL1        0.0949
     28 C         138.6730  139.5504  166.1457 C.2     1  UNL1        0.2266
     29 O         137.5756  138.5379  166.2895 O.2     1  UNL1       -0.2748
     30 N         140.0217  139.2850  166.7461 N.am    1  UNL1       -0.2841
     31 H         140.1867  138.4464  167.2347 H       1  UNL1        0.1548
     32 C         140.7647  141.0322  169.0690 C.3     1  UNL1        0.0236
     33 C         139.8198  141.5837  170.0951 C.3     1  UNL1        0.0047
     34 C         140.4524  140.2398  170.3038 C.3     1  UNL1        0.0047
@<TRIPOS>BOND
     1    27    28    1
     2    28    29    2
     3    28    30   am
     4    30    20    1
     5    20    21   ar
     6    21    22   ar
     7    22     1    1
     8     1     3    1
     9     3     4   ar
    10     4     5   ar
    11     5    12    1
    12    12    14    1
    13    14    15    1
    14    15    16    1
    15    16    17    1
    16     5     6   ar
    17     6     7   ar
    18     7     8   ar
    19     8     9   ar
    20     9    18    1
    21    18    19    3
    22     9    10   ar
    23    10    11   ar
    24    22    23   ar
    25    23    24    1
    26    23    25   ar
    27    25    26   ar
    28    26    32    1
    29    32    33    1
    30    33    34    1
    31    26    20   ar
    32    34    32    1
    33    11     3   ar
    34    17    14    1
    35    10     6   ar
    36    30    31    1
    37     1     2    1
    38    12    13    1
