@<TRIPOS>MOLECULE
*****
 32 35 0 0 0
SMALL
GASTEIGER

@<TRIPOS>ATOM
      1 C         142.3547  136.7274  155.2166 C.3     1  UNL1        0.0137
      2 C         141.6993  137.4137  156.3783 C.3     1  UNL1        0.0932
      3 C         143.0914  137.8802  156.6857 C.3     1  UNL1        0.0137
      4 C         140.4442  136.8037  155.8282 C.2     1  UNL1        0.2302
      5 O         140.3464  135.9388  154.6066 O.2     1  UNL1       -0.2744
      6 N         139.3042  137.2106  156.7141 N.am    1  UNL1       -0.2692
      7 C         139.8547  138.0720  157.8118 C.ar    1  UNL1        0.1363
      8 N         139.1994  138.7583  158.9734 N.ar    1  UNL1       -0.1951
      9 C         140.0242  139.5701  159.9276 C.ar    1  UNL1        0.2553
     10 N         141.5045  139.6956  159.7201 N.ar    1  UNL1       -0.1957
     11 C         142.1599  139.0093  158.5584 C.ar    1  UNL1        0.1276
     12 N         143.6401  139.1349  158.3509 N.pl3   1  UNL1       -0.3427
     13 C         141.3350  138.1975  157.6043 C.ar    1  UNL1        0.0484
     14 H         138.3604  136.9568  156.5958 H       1  UNL1        0.1563
     15 H         144.1815  139.6677  158.9772 H       1  UNL1        0.1437
     16 H         144.0703  138.6845  157.5885 H       1  UNL1        0.1437
     17 N         139.3689  140.2564  161.0893 N.ar    1  UNL1       -0.1967
     18 N         138.8462  141.6623  161.1022 N.ar    1  UNL1       -0.1670
     19 C         138.2754  141.9322  162.4629 C.ar    1  UNL1        0.0808
     20 C         138.4454  140.6930  163.2909 C.ar    1  UNL1        0.0339
     21 C         138.0721  140.3738  164.7082 C.ar    1  UNL1        0.0141
     22 C         138.3746  139.0191  165.2766 C.ar    1  UNL1        0.0578
     23 CL        138.0013  138.7000  166.6940 Cl      1  UNL1       -0.0822
     24 C         139.0504  137.9834  164.4276 C.ar    1  UNL1        0.0129
     25 C         139.4237  138.3025  163.0103 C.ar    1  UNL1        0.0202
     26 C         139.1212  139.6573  162.4420 C.ar    1  UNL1        0.0871
     27 C         137.6453  143.2158  162.9160 C.3     1  UNL1        0.0564
     28 C         138.5090  144.3647  163.3450 C.3     1  UNL1        0.1097
     29 C         138.6438  144.6989  164.8010 C.3     1  UNL1        0.3982
     30 F         138.7786  145.0331  166.2571 F       1  UNL1       -0.1700
     31 F         140.0818  145.0659  164.5837 F       1  UNL1       -0.1700
     32 F         137.2058  144.3319  165.0184 F       1  UNL1       -0.1700
@<TRIPOS>BOND
     1     1     2    1
     2     2     3    1
     3     2     4    1
     4     4     5    2
     5     4     6   am
     6     6     7    1
     7     7     8   ar
     8     8     9   ar
     9     9    17    1
    10    17    18   ar
    11    18    19   ar
    12    19    27    1
    13    27    28    1
    14    28    29    1
    15    29    30    1
    16    29    31    1
    17    29    32    1
    18    19    20   ar
    19    20    21   ar
    20    21    22   ar
    21    22    23    1
    22    22    24   ar
    23    24    25   ar
    24    25    26   ar
    25     9    10   ar
    26    10    11   ar
    27    11    12    1
    28    11    13   ar
    29    13     2    1
    30    13     7   ar
    31    26    17   ar
    32    26    20   ar
    33     6    14    1
    34    12    15    1
    35    12    16    1
@<TRIPOS>MOLECULE
*****
 32 35 0 0 0
SMALL
GASTEIGER

@<TRIPOS>ATOM
      1 C         142.1661  136.7801  155.0332 C.3     1  UNL1        0.0137
      2 C         141.6145  137.4914  156.2332 C.3     1  UNL1        0.0932
      3 C         140.3750  137.6105  155.3969 C.3     1  UNL1        0.0137
      4 C         142.9694  137.2237  156.8186 C.2     1  UNL1        0.2302
      5 O         144.0992  136.5105  156.1368 O.2     1  UNL1       -0.2744
      6 N         142.9960  137.7945  158.2055 N.am    1  UNL1       -0.2692
      7 C         141.6576  138.4149  158.4772 C.ar    1  UNL1        0.1363
      8 N         141.1061  139.1262  159.6772 N.ar    1  UNL1       -0.1951
      9 C         139.7008  139.6503  159.6581 C.ar    1  UNL1        0.2553
     10 N         138.8470  139.4630  158.4391 N.ar    1  UNL1       -0.1957
     11 C         139.3985  138.7517  157.2392 C.ar    1  UNL1        0.1276
     12 N         138.5447  138.5644  156.0202 N.pl3   1  UNL1       -0.3427
     13 C         140.8038  138.2277  157.2583 C.ar    1  UNL1        0.0484
     14 H         143.7581  137.7667  158.8281 H       1  UNL1        0.1563
     15 H         137.6223  138.9083  156.0077 H       1  UNL1        0.1437
     16 H         138.9067  138.0975  155.2327 H       1  UNL1        0.1437
     17 N         139.1492  140.3616  160.8580 N.ar    1  UNL1       -0.1967
     18 N         138.6907  141.7891  160.9032 N.ar    1  UNL1       -0.1670
     19 C         138.2175  142.0801  162.2965 C.ar    1  UNL1        0.0808
     20 C         138.3835  140.8324  163.1125 C.ar    1  UNL1        0.0339
     21 C         138.0846  140.5262  164.5501 C.ar    1  UNL1        0.0141
     22 C         138.3617  139.1580  165.0988 C.ar    1  UNL1        0.0578
     23 CL        138.0628  138.8517  166.5365 Cl      1  UNL1       -0.0822
     24 C         138.9375  138.0958  164.2097 C.ar    1  UNL1        0.0129
     25 C         139.2364  138.4020  162.7721 C.ar    1  UNL1        0.0202
     26 C         138.9593  139.7704  162.2234 C.ar    1  UNL1        0.0871
     27 C         137.6737  143.3890  162.7876 C.3     1  UNL1        0.0564
     28 C         138.6069  144.4384  163.3148 C.3     1  UNL1        0.1097
     29 C         138.6966  144.6890  164.7910 C.3     1  UNL1        0.3982
     30 F         138.7862  144.9396  166.2672 F       1  UNL1       -0.1700
     31 F         140.1156  145.1464  164.6271 F       1  UNL1       -0.1700
     32 F         137.2775  144.2315  164.9549 F       1  UNL1       -0.1700
@<TRIPOS>BOND
     1     1     2    1
     2     2     3    1
     3     2     4    1
     4     4     5    2
     5     4     6   am
     6     6     7    1
     7     7     8   ar
     8     8     9   ar
     9     9    17    1
    10    17    18   ar
    11    18    19   ar
    12    19    27    1
    13    27    28    1
    14    28    29    1
    15    29    30    1
    16    29    31    1
    17    29    32    1
    18    19    20   ar
    19    20    21   ar
    20    21    22   ar
    21    22    23    1
    22    22    24   ar
    23    24    25   ar
    24    25    26   ar
    25     9    10   ar
    26    10    11   ar
    27    11    12    1
    28    11    13   ar
    29    13     2    1
    30    13     7   ar
    31    26    17   ar
    32    26    20   ar
    33     6    14    1
    34    12    15    1
    35    12    16    1
@<TRIPOS>MOLECULE
*****
 32 35 0 0 0
SMALL
GASTEIGER

@<TRIPOS>ATOM
      1 C         141.4173  145.4800  157.8553 C.3     1  UNL1        0.0137
      2 C         141.3804  144.8325  159.2079 C.3     1  UNL1        0.0932
      3 C         140.3532  145.8832  159.5091 C.3     1  UNL1        0.0137
      4 C         142.4154  143.9171  158.6240 C.2     1  UNL1        0.2302
      5 O         142.9656  143.9836  157.2301 O.2     1  UNL1       -0.2744
      6 N         142.8034  142.9236  159.6786 N.am    1  UNL1       -0.2692
      7 C         142.0083  143.2248  160.9143 C.ar    1  UNL1        0.1363
      8 N         141.9716  142.5773  162.2668 N.ar    1  UNL1       -0.1951
      9 C         141.0553  143.1096  163.3285 C.ar    1  UNL1        0.2553
     10 N         140.1758  144.2894  163.0376 N.ar    1  UNL1       -0.1957
     11 C         140.2126  144.9369  161.6851 C.ar    1  UNL1        0.1276
     12 N         139.3331  146.1167  161.3942 N.pl3   1  UNL1       -0.3427
     13 C         141.1289  144.4046  160.6235 C.ar    1  UNL1        0.0484
     14 H         143.4640  142.2006  159.5775 H       1  UNL1        0.1563
     15 H         138.7318  146.4661  162.0910 H       1  UNL1        0.1437
     16 H         139.3573  146.5417  160.5065 H       1  UNL1        0.1437
     17 N         141.0185  142.4621  164.6811 N.ar    1  UNL1       -0.1967
     18 N         141.9598  142.7371  165.8161 N.ar    1  UNL1       -0.1670
     19 C         141.5570  141.8709  166.9726 C.ar    1  UNL1        0.0808
     20 C         140.3667  141.0606  166.5523 C.ar    1  UNL1        0.0339
     21 C         139.5429  140.0372  167.2762 C.ar    1  UNL1        0.0141
     22 C         138.3864  139.3792  166.5839 C.ar    1  UNL1        0.0578
     23 CL        137.5626  138.3558  167.3079 Cl      1  UNL1       -0.0822
     24 C         138.0535  139.7446  165.1676 C.ar    1  UNL1        0.0129
     25 C         138.8773  140.7680  164.4437 C.ar    1  UNL1        0.0202
     26 C         140.0339  141.4260  165.1361 C.ar    1  UNL1        0.0871
     27 C         142.2269  141.8234  168.3139 C.3     1  UNL1        0.0564
     28 C         141.8882  142.8458  169.3580 C.3     1  UNL1        0.1097
     29 C         140.5283  142.8491  169.9910 C.3     1  UNL1        0.3982
     30 F         139.1685  142.8523  170.6241 F       1  UNL1       -0.1700
     31 F         140.6236  141.3672  170.2035 F       1  UNL1       -0.1700
     32 F         140.4330  144.3309  169.7786 F       1  UNL1       -0.1700
@<TRIPOS>BOND
     1     1     2    1
     2     2     3    1
     3     2     4    1
     4     4     5    2
     5     4     6   am
     6     6     7    1
     7     7     8   ar
     8     8     9   ar
     9     9    17    1
    10    17    18   ar
    11    18    19   ar
    12    19    27    1
    13    27    28    1
    14    28    29    1
    15    29    30    1
    16    29    31    1
    17    29    32    1
    18    19    20   ar
    19    20    21   ar
    20    21    22   ar
    21    22    23    1
    22    22    24   ar
    23    24    25   ar
    24    25    26   ar
    25     9    10   ar
    26    10    11   ar
    27    11    12    1
    28    11    13   ar
    29    13     2    1
    30    13     7   ar
    31    26    17   ar
    32    26    20   ar
    33     6    14    1
    34    12    15    1
    35    12    16    1
@<TRIPOS>MOLECULE
*****
 32 35 0 0 0
SMALL
GASTEIGER

@<TRIPOS>ATOM
      1 C         141.8640  145.0978  157.3559 C.3     1  UNL1        0.0137
      2 C         141.7206  144.5580  158.7481 C.3     1  UNL1        0.0932
      3 C         142.9689  143.7969  158.4128 C.3     1  UNL1        0.0137
      4 C         140.5023  145.4319  158.7924 C.2     1  UNL1        0.2302
      5 O         140.0065  146.3103  157.6822 O.2     1  UNL1       -0.2744
      6 N         139.8668  145.2732  160.1418 N.am    1  UNL1       -0.2692
      7 C         140.6924  144.3012  160.9315 C.ar    1  UNL1        0.1363
      8 N         140.5489  143.7615  162.3237 N.ar    1  UNL1       -0.1951
      9 C         141.5511  142.7798  162.8544 C.ar    1  UNL1        0.2553
     10 N         142.6968  142.3378  161.9930 N.ar    1  UNL1       -0.1957
     11 C         142.8403  142.8775  160.6009 C.ar    1  UNL1        0.1276
     12 N         143.9860  142.4355  159.7395 N.pl3   1  UNL1       -0.3427
     13 C         141.8381  143.8592  160.0702 C.ar    1  UNL1        0.0484
     14 H         139.0511  145.7273  160.4543 H       1  UNL1        0.1563
     15 H         144.6438  141.7911  160.0879 H       1  UNL1        0.1437
     16 H         144.0802  142.7897  158.8258 H       1  UNL1        0.1437
     17 N         141.4077  142.2400  164.2466 N.ar    1  UNL1       -0.1967
     18 N         142.3010  142.5535  165.4102 N.ar    1  UNL1       -0.1670
     19 C         141.7912  141.7993  166.6024 C.ar    1  UNL1        0.0808
     20 C         140.5828  141.0197  166.1756 C.ar    1  UNL1        0.0339
     21 C         139.6677  140.0969  166.9246 C.ar    1  UNL1        0.0141
     22 C         138.5156  139.4466  166.2178 C.ar    1  UNL1        0.0578
     23 CL        137.6004  138.5238  166.9669 Cl      1  UNL1       -0.0822
     24 C         138.2785  139.7190  164.7618 C.ar    1  UNL1        0.0129
     25 C         139.1937  140.6417  164.0128 C.ar    1  UNL1        0.0202
     26 C         140.3458  141.2921  164.7197 C.ar    1  UNL1        0.0871
     27 C         142.3854  141.8209  167.9795 C.3     1  UNL1        0.0564
     28 C         141.8766  142.7948  169.0006 C.3     1  UNL1        0.1097
     29 C         140.5549  142.5583  169.6692 C.3     1  UNL1        0.3982
     30 F         139.2332  142.3219  170.3379 F       1  UNL1       -0.1700
     31 F         140.2056  144.0061  169.4908 F       1  UNL1       -0.1700
     32 F         140.9042  141.1105  169.8477 F       1  UNL1       -0.1700
@<TRIPOS>BOND
     1     1     2    1
     2     2     3    1
     3     2     4    1
     4     4     5    2
     5     4     6   am
     6     6     7    1
     7     7     8   ar
     8     8     9   ar
     9     9    17    1
    10    17    18   ar
    11    18    19   ar
    12    19    27    1
    13    27    28    1
    14    28    29    1
    15    29    30    1
    16    29    31    1
    17    29    32    1
    18    19    20   ar
    19    20    21   ar
    20    21    22   ar
    21    22    23    1
    22    22    24   ar
    23    24    25   ar
    24    25    26   ar
    25     9    10   ar
    26    10    11   ar
    27    11    12    1
    28    11    13   ar
    29    13     2    1
    30    13     7   ar
    31    26    17   ar
    32    26    20   ar
    33     6    14    1
    34    12    15    1
    35    12    16    1
@<TRIPOS>MOLECULE
*****
 32 35 0 0 0
SMALL
GASTEIGER

@<TRIPOS>ATOM
      1 C         144.0457  142.2383  157.5319 C.3     1  UNL1        0.0137
      2 C         143.5458  142.0210  158.9294 C.3     1  UNL1        0.0932
      3 C         143.1825  143.4746  158.8572 C.3     1  UNL1        0.0137
      4 C         144.0135  140.6129  158.7095 C.2     1  UNL1        0.2302
      5 O         144.6553  140.0817  157.4621 O.2     1  UNL1       -0.2744
      6 N         143.7268  139.8293  159.9559 N.am    1  UNL1       -0.2692
      7 C         143.0818  140.7530  160.9462 C.ar    1  UNL1        0.1363
      8 N         142.5819  140.5358  162.3436 N.ar    1  UNL1       -0.1951
      9 C         141.9702  141.6731  163.1066 C.ar    1  UNL1        0.2553
     10 N         141.8583  143.0277  162.4722 N.ar    1  UNL1       -0.1957
     11 C         142.3582  143.2450  161.0748 C.ar    1  UNL1        0.1276
     12 N         142.2464  144.5996  160.4404 N.pl3   1  UNL1       -0.3427
     13 C         142.9699  142.1077  160.3118 C.ar    1  UNL1        0.0484
     14 H         143.9267  138.8760  160.0990 H       1  UNL1        0.1563
     15 H         141.8448  145.3461  160.9412 H       1  UNL1        0.1437
     16 H         142.5744  144.7422  159.5232 H       1  UNL1        0.1437
     17 N         141.4703  141.4558  164.5042 N.ar    1  UNL1       -0.1967
     18 N         141.9418  142.1780  165.7314 N.ar    1  UNL1       -0.1670
     19 C         141.1741  141.6468  166.9055 C.ar    1  UNL1        0.0808
     20 C         140.2281  140.5963  166.4038 C.ar    1  UNL1        0.0339
     21 C         139.2236  139.7320  167.1066 C.ar    1  UNL1        0.0141
     22 C         138.4023  138.7497  166.3254 C.ar    1  UNL1        0.0578
     23 CL        137.3977  137.8853  167.0283 Cl      1  UNL1       -0.0822
     24 C         138.5853  138.6317  164.8413 C.ar    1  UNL1        0.0129
     25 C         139.5898  139.4960  164.1384 C.ar    1  UNL1        0.0202
     26 C         140.4112  140.4783  164.9197 C.ar    1  UNL1        0.0871
     27 C         141.3257  142.0885  168.3309 C.3     1  UNL1        0.0564
     28 C         140.6611  143.3487  168.8003 C.3     1  UNL1        0.1097
     29 C         139.9111  143.3621  170.0993 C.3     1  UNL1        0.3982
     30 F         139.1612  143.3754  171.3983 F       1  UNL1       -0.1700
     31 F         140.2634  144.8078  170.2878 F       1  UNL1       -0.1700
     32 F         139.5589  141.9163  169.9108 F       1  UNL1       -0.1700
@<TRIPOS>BOND
     1     1     2    1
     2     2     3    1
     3     2     4    1
     4     4     5    2
     5     4     6   am
     6     6     7    1
     7     7     8   ar
     8     8     9   ar
     9     9    17    1
    10    17    18   ar
    11    18    19   ar
    12    19    27    1
    13    27    28    1
    14    28    29    1
    15    29    30    1
    16    29    31    1
    17    29    32    1
    18    19    20   ar
    19    20    21   ar
    20    21    22   ar
    21    22    23    1
    22    22    24   ar
    23    24    25   ar
    24    25    26   ar
    25     9    10   ar
    26    10    11   ar
    27    11    12    1
    28    11    13   ar
    29    13     2    1
    30    13     7   ar
    31    26    17   ar
    32    26    20   ar
    33     6    14    1
    34    12    15    1
    35    12    16    1
@<TRIPOS>MOLECULE
*****
 32 35 0 0 0
SMALL
GASTEIGER

@<TRIPOS>ATOM
      1 C         141.5190  137.0402  155.6737 C.3     1  UNL1        0.0137
      2 C         141.3351  137.7157  157.0004 C.3     1  UNL1        0.0932
      3 C         140.0313  138.1677  156.4124 C.3     1  UNL1        0.0137
      4 C         142.6773  137.1225  157.3111 C.2     1  UNL1        0.2302
      5 O         143.5017  136.2748  156.3882 O.2     1  UNL1       -0.2744
      6 N         143.0504  137.5258  158.7069 N.am    1  UNL1       -0.2692
      7 C         141.9388  138.3682  159.2588 C.ar    1  UNL1        0.1363
      8 N         141.7549  139.0436  160.5855 N.ar    1  UNL1       -0.1951
      9 C         140.5110  139.8364  160.8574 C.ar    1  UNL1        0.2553
     10 N         139.4508  139.9537  159.8027 N.ar    1  UNL1       -0.1957
     11 C         139.6347  139.2783  158.4761 C.ar    1  UNL1        0.1276
     12 N         138.5745  139.3957  157.4214 N.pl3   1  UNL1       -0.3427
     13 C         140.8787  138.4856  158.2041 C.ar    1  UNL1        0.0484
     14 H         143.8794  137.2806  159.1780 H       1  UNL1        0.1563
     15 H         137.7581  139.9160  157.5999 H       1  UNL1        0.1437
     16 H         138.6952  138.9524  156.5507 H       1  UNL1        0.1437
     17 N         140.3271  140.5118  162.1841 N.ar    1  UNL1       -0.1967
     18 N         140.7347  141.9150  162.5231 N.ar    1  UNL1       -0.1670
     19 C         140.3629  142.1731  163.9532 C.ar    1  UNL1        0.0808
     20 C         139.7253  140.9293  164.4980 C.ar    1  UNL1        0.0339
     21 C         139.1621  140.5991  165.8484 C.ar    1  UNL1        0.0141
     22 C         138.5768  139.2422  166.1055 C.ar    1  UNL1        0.0578
     23 CL        138.0135  138.9120  167.4560 Cl      1  UNL1       -0.0822
     24 C         138.5546  138.2155  165.0122 C.ar    1  UNL1        0.0129
     25 C         139.1179  138.5457  163.6617 C.ar    1  UNL1        0.0202
     26 C         139.7032  139.9027  163.4047 C.ar    1  UNL1        0.0871
     27 C         140.5888  143.4505  164.7062 C.3     1  UNL1        0.0564
     28 C         139.4392  144.3754  164.9761 C.3     1  UNL1        0.1097
     29 C         138.3294  144.5042  163.9752 C.3     1  UNL1        0.3982
     30 F         137.2196  144.6331  162.9743 F       1  UNL1       -0.1700
     31 F         139.2344  145.2897  163.0729 F       1  UNL1       -0.1700
     32 F         137.4245  143.7188  164.8775 F       1  UNL1       -0.1700
@<TRIPOS>BOND
     1     1     2    1
     2     2     3    1
     3     2     4    1
     4     4     5    2
     5     4     6   am
     6     6     7    1
     7     7     8   ar
     8     8     9   ar
     9     9    17    1
    10    17    18   ar
    11    18    19   ar
    12    19    27    1
    13    27    28    1
    14    28    29    1
    15    29    30    1
    16    29    31    1
    17    29    32    1
    18    19    20   ar
    19    20    21   ar
    20    21    22   ar
    21    22    23    1
    22    22    24   ar
    23    24    25   ar
    24    25    26   ar
    25     9    10   ar
    26    10    11   ar
    27    11    12    1
    28    11    13   ar
    29    13     2    1
    30    13     7   ar
    31    26    17   ar
    32    26    20   ar
    33     6    14    1
    34    12    15    1
    35    12    16    1
@<TRIPOS>MOLECULE
*****
 32 35 0 0 0
SMALL
GASTEIGER

@<TRIPOS>ATOM
      1 C         140.9001  146.0934  153.7953 C.3     1  UNL1        0.0137
      2 C         141.0888  145.8243  155.2589 C.3     1  UNL1        0.0932
      3 C         142.1499  144.8750  154.7868 C.3     1  UNL1        0.0137
      4 C         139.9883  146.8299  155.4249 C.2     1  UNL1        0.2302
      5 O         139.2815  147.5544  154.3178 O.2     1  UNL1       -0.2744
      6 N         139.7187  146.9838  156.8924 N.am    1  UNL1       -0.2692
      7 C         140.6525  146.0733  157.6333 C.ar    1  UNL1        0.1363
      8 N         140.8412  145.8043  159.0969 N.ar    1  UNL1       -0.1951
      9 C         141.8767  144.8186  159.5508 C.ar    1  UNL1        0.2553
     10 N         142.7235  144.1019  158.5412 N.ar    1  UNL1       -0.1957
     11 C         142.5349  144.3710  157.0776 C.ar    1  UNL1        0.1276
     12 N         143.3817  143.6544  156.0680 N.pl3   1  UNL1       -0.3427
     13 C         141.4994  145.3567  156.6237 C.ar    1  UNL1        0.0484
     14 H         139.0467  147.5781  157.2981 H       1  UNL1        0.1563
     15 H         144.0613  143.0074  156.3660 H       1  UNL1        0.1437
     16 H         143.2579  143.8310  155.1075 H       1  UNL1        0.1437
     17 N         142.0654  144.5494  161.0144 N.ar    1  UNL1       -0.1967
     18 N         143.3455  144.1335  161.6765 N.ar    1  UNL1       -0.1670
     19 C         143.0784  143.9760  163.1441 C.ar    1  UNL1        0.0808
     20 C         141.6332  144.2945  163.3890 C.ar    1  UNL1        0.0339
     21 C         140.8064  144.3077  164.6405 C.ar    1  UNL1        0.0141
     22 C         139.3537  144.6752  164.5758 C.ar    1  UNL1        0.0578
     23 CL        138.5269  144.6884  165.8274 Cl      1  UNL1       -0.0822
     24 C         138.7275  145.0296  163.2595 C.ar    1  UNL1        0.0129
     25 C         139.5543  145.0165  162.0080 C.ar    1  UNL1        0.0202
     26 C         141.0072  144.6489  162.0728 C.ar    1  UNL1        0.0871
     27 C         144.0806  143.5710  164.1841 C.3     1  UNL1        0.0564
     28 C         143.9549  142.2428  164.8697 C.3     1  UNL1        0.1097
     29 C         144.7125  141.0566  164.3512 C.3     1  UNL1        0.3982
     30 F         145.4701  139.8703  163.8328 F       1  UNL1       -0.1700
     31 F         145.9304  141.9133  164.1707 F       1  UNL1       -0.1700
     32 F         143.4946  140.1998  164.5318 F       1  UNL1       -0.1700
@<TRIPOS>BOND
     1     1     2    1
     2     2     3    1
     3     2     4    1
     4     4     5    2
     5     4     6   am
     6     6     7    1
     7     7     8   ar
     8     8     9   ar
     9     9    17    1
    10    17    18   ar
    11    18    19   ar
    12    19    27    1
    13    27    28    1
    14    28    29    1
    15    29    30    1
    16    29    31    1
    17    29    32    1
    18    19    20   ar
    19    20    21   ar
    20    21    22   ar
    21    22    23    1
    22    22    24   ar
    23    24    25   ar
    24    25    26   ar
    25     9    10   ar
    26    10    11   ar
    27    11    12    1
    28    11    13   ar
    29    13     2    1
    30    13     7   ar
    31    26    17   ar
    32    26    20   ar
    33     6    14    1
    34    12    15    1
    35    12    16    1
@<TRIPOS>MOLECULE
*****
 32 35 0 0 0
SMALL
GASTEIGER

@<TRIPOS>ATOM
      1 C         141.5944  142.3479  171.4560 C.3     1  UNL1        0.0137
      2 C         141.3177  141.8299  170.0757 C.3     1  UNL1        0.0932
      3 C         140.1643  141.1361  170.7376 C.3     1  UNL1        0.0137
      4 C         142.5290  142.6320  169.7023 C.2     1  UNL1        0.2302
      5 O         143.3630  143.4566  170.6374 O.2     1  UNL1       -0.2744
      6 N         142.7598  142.4646  168.2296 N.am    1  UNL1       -0.2692
      7 C         141.6912  141.5591  167.6929 C.ar    1  UNL1        0.1363
      8 N         141.4146  141.0411  166.3126 N.ar    1  UNL1       -0.1951
      9 C         140.2466  140.1309  166.0733 C.ar    1  UNL1        0.2553
     10 N         139.3553  139.7386  167.2142 N.ar    1  UNL1       -0.1957
     11 C         139.6320  140.2566  168.5945 C.ar    1  UNL1        0.1276
     12 N         138.7407  139.8643  169.7354 N.pl3   1  UNL1       -0.3427
     13 C         140.7999  141.1668  168.8338 C.ar    1  UNL1        0.0484
     14 H         143.4853  142.8767  167.7071 H       1  UNL1        0.1563
     15 H         137.9741  139.2668  169.5783 H       1  UNL1        0.1437
     16 H         138.9223  140.2043  170.6413 H       1  UNL1        0.1437
     17 N         139.9699  139.6128  164.6930 N.ar    1  UNL1       -0.1967
     18 N         138.6259  139.5422  164.0308 N.ar    1  UNL1       -0.1670
     19 C         138.8139  138.9602  162.6611 C.ar    1  UNL1        0.0808
     20 C         140.2743  138.6712  162.4769 C.ar    1  UNL1        0.0339
     21 C         141.0458  138.0928  161.3279 C.ar    1  UNL1        0.0141
     22 C         142.5317  137.9178  161.4346 C.ar    1  UNL1        0.0578
     23 CL        143.3032  137.3394  160.2855 Cl      1  UNL1       -0.0822
     24 C         143.2462  138.3212  162.6904 C.ar    1  UNL1        0.0129
     25 C         142.4746  138.8995  163.8394 C.ar    1  UNL1        0.0202
     26 C         140.9887  139.0745  163.7326 C.ar    1  UNL1        0.0871
     27 C         137.7317  138.7110  161.6528 C.3     1  UNL1        0.0564
     28 C         137.3381  139.7937  160.6921 C.3     1  UNL1        0.1097
     29 C         138.3662  140.4010  159.7843 C.3     1  UNL1        0.3982
     30 F         139.3943  141.0083  158.8765 F       1  UNL1       -0.1700
     31 F         138.6866  139.0414  159.2376 F       1  UNL1       -0.1700
     32 F         138.0458  141.7606  160.3310 F       1  UNL1       -0.1700
@<TRIPOS>BOND
     1     1     2    1
     2     2     3    1
     3     2     4    1
     4     4     5    2
     5     4     6   am
     6     6     7    1
     7     7     8   ar
     8     8     9   ar
     9     9    17    1
    10    17    18   ar
    11    18    19   ar
    12    19    27    1
    13    27    28    1
    14    28    29    1
    15    29    30    1
    16    29    31    1
    17    29    32    1
    18    19    20   ar
    19    20    21   ar
    20    21    22   ar
    21    22    23    1
    22    22    24   ar
    23    24    25   ar
    24    25    26   ar
    25     9    10   ar
    26    10    11   ar
    27    11    12    1
    28    11    13   ar
    29    13     2    1
    30    13     7   ar
    31    26    17   ar
    32    26    20   ar
    33     6    14    1
    34    12    15    1
    35    12    16    1
@<TRIPOS>MOLECULE
*****
 32 35 0 0 0
SMALL
GASTEIGER

@<TRIPOS>ATOM
      1 C         140.4296  136.3291  155.2019 C.3     1  UNL1        0.0137
      2 C         140.9790  137.0383  156.4041 C.3     1  UNL1        0.0932
      3 C         139.6296  137.6925  156.4392 C.3     1  UNL1        0.0137
      4 C         142.2135  136.2359  156.1177 C.2     1  UNL1        0.2302
      5 O         142.3873  135.2556  154.9957 O.2     1  UNL1       -0.2744
      6 N         143.2438  136.5860  157.1501 N.am    1  UNL1       -0.2692
      7 C         142.6460  137.6048  158.0747 C.ar    1  UNL1        0.1363
      8 N         143.1953  138.3139  159.2769 N.ar    1  UNL1       -0.1951
      9 C         142.3450  139.3027  160.0179 C.ar    1  UNL1        0.2553
     10 N         140.9453  139.5823  159.5568 N.ar    1  UNL1       -0.1957
     11 C         140.3959  138.8731  158.3547 C.ar    1  UNL1        0.1276
     12 N         138.9961  139.1526  157.8936 N.pl3   1  UNL1       -0.3427
     13 C         141.2462  137.8843  157.6136 C.ar    1  UNL1        0.0484
     14 H         144.1527  136.2127  157.2104 H       1  UNL1        0.1563
     15 H         138.4380  139.8016  158.3800 H       1  UNL1        0.1437
     16 H         138.6356  138.6872  157.1046 H       1  UNL1        0.1437
     17 N         142.8944  140.0119  161.2201 N.ar    1  UNL1       -0.1967
     18 N         143.5901  141.3408  161.2183 N.ar    1  UNL1       -0.1670
     19 C         143.9702  141.6671  162.6322 C.ar    1  UNL1        0.0808
     20 C         143.5093  140.5397  163.5079 C.ar    1  UNL1        0.0339
     21 C         143.6091  140.3124  164.9872 C.ar    1  UNL1        0.0141
     22 C         143.0442  139.0624  165.5938 C.ar    1  UNL1        0.0578
     23 CL        143.1440  138.8351  167.0732 Cl      1  UNL1       -0.0822
     24 C         142.3792  138.0394  164.7210 C.ar    1  UNL1        0.0129
     25 C         142.2794  138.2667  163.2417 C.ar    1  UNL1        0.0202
     26 C         142.8444  139.5168  162.6352 C.ar    1  UNL1        0.0871
     27 C         144.6855  142.9034  163.0900 C.3     1  UNL1        0.0564
     28 C         144.1327  143.7125  164.2257 C.3     1  UNL1        0.1097
     29 C         143.0637  144.7330  163.9689 C.3     1  UNL1        0.3982
     30 F         141.9947  145.7534  163.7122 F       1  UNL1       -0.1700
     31 F         142.0935  143.9188  164.7726 F       1  UNL1       -0.1700
     32 F         144.0339  145.5471  163.1653 F       1  UNL1       -0.1700
@<TRIPOS>BOND
     1     1     2    1
     2     2     3    1
     3     2     4    1
     4     4     5    2
     5     4     6   am
     6     6     7    1
     7     7     8   ar
     8     8     9   ar
     9     9    17    1
    10    17    18   ar
    11    18    19   ar
    12    19    27    1
    13    27    28    1
    14    28    29    1
    15    29    30    1
    16    29    31    1
    17    29    32    1
    18    19    20   ar
    19    20    21   ar
    20    21    22   ar
    21    22    23    1
    22    22    24   ar
    23    24    25   ar
    24    25    26   ar
    25     9    10   ar
    26    10    11   ar
    27    11    12    1
    28    11    13   ar
    29    13     2    1
    30    13     7   ar
    31    26    17   ar
    32    26    20   ar
    33     6    14    1
    34    12    15    1
    35    12    16    1
