@<TRIPOS>MOLECULE
*****
 34 38 0 0 0
SMALL
GASTEIGER

@<TRIPOS>ATOM
      1 C         139.8414  138.9720  164.2687 C.ar    1  UNL1        0.0016
      2 C         138.5627  138.3713  164.7725 C.ar    1  UNL1        0.0016
      3 C         138.1622  138.5537  166.2065 C.ar    1  UNL1        0.0191
      4 C         139.0404  139.3370  167.1366 C.ar    1  UNL1        0.0828
      5 N         138.6399  139.5195  168.5707 N.ar    1  UNL1       -0.2422
      6 C         139.5181  140.3027  169.5008 C.ar    1  UNL1        0.1175
      7 C         140.7969  140.9035  168.9969 C.ar    1  UNL1        0.0989
      8 C         141.1974  140.7211  167.5630 C.ar    1  UNL1        0.0826
      9 C         140.3192  139.9378  166.6328 C.ar    1  UNL1        0.0350
     10 C         140.7197  139.7553  165.1989 C.ar    1  UNL1        0.0030
     11 N         142.5056  141.4246  167.3540 N.ar    1  UNL1       -0.2815
     12 C         142.9135  142.0419  168.6588 C.ar    1  UNL1        0.3316
     13 O         144.1589  142.8411  168.9050 O.2     1  UNL1       -0.2463
     14 N         141.8575  141.7199  169.6742 N.ar    1  UNL1       -0.2765
     15 C         141.8614  142.1403  171.1141 C.3     1  UNL1        0.1352
     16 C         141.0430  138.4247  159.9667 C.ar    1  UNL1        0.2249
     17 C         142.0897  138.6738  161.0119 C.ar    1  UNL1        0.0577
     18 C         141.6891  138.8562  162.4459 C.ar    1  UNL1        0.0063
     19 C         140.2420  138.7896  162.8347 C.ar    1  UNL1        0.0194
     20 C         139.1953  138.5405  161.7895 C.ar    1  UNL1        0.1020
     21 N         139.5958  138.3580  160.3556 N.ar    1  UNL1       -0.2101
     22 O         141.4435  138.2422  158.5328 O.3     1  UNL1       -0.4602
     23 C         142.6787  137.4623  158.1925 C.3     1  UNL1        0.2085
     24 C         142.8504  136.8923  156.8156 C.3     1  UNL1        0.0644
     25 C         142.7731  135.4095  156.6027 C.3     1  UNL1        0.0725
     26 C         144.1616  133.4789  157.6490 C.3     1  UNL1        0.0859
     27 N         144.0225  134.5804  156.6403 N.3     1  UNL1       -0.2962
     28 H         144.1185  134.1508  155.7201 H       1  UNL1        0.1233
     29 C         143.2713  141.4980  166.0663 C.3     1  UNL1        0.0947
     30 C         143.9202  140.4946  165.1595 C.3     1  UNL1        0.0524
     31 C         144.3542  141.6017  164.2451 C.3     1  UNL1        0.1191
     32 C         143.7053  142.6050  165.1518 C.3     1  UNL1        0.0524
     33 O         145.1199  141.6750  162.9574 O.3     1  UNL1       -0.3534
     34 C         144.4096  141.4820  161.6504 C.3     1  UNL1        0.1740
@<TRIPOS>BOND
     1    26    27    1
     2    27    25    1
     3    25    24    1
     4    24    23    1
     5    23    22    1
     6    22    16    1
     7    16    17   ar
     8    17    18   ar
     9    18    19   ar
    10    19     1    1
    11     1     2   ar
    12     2     3   ar
    13     3     4   ar
    14     4     5   ar
    15     5     6   ar
    16     6     7   ar
    17     7     8   ar
    18     8     9   ar
    19     9    10   ar
    20     8    11   ar
    21    29    11    1
    22    29    30    1
    23    30    31    1
    24    31    33    1
    25    33    34    1
    26    31    32    1
    27    11    12   ar
    28    12    13    2
    29    12    14   ar
    30    14    15    1
    31    19    20   ar
    32    20    21   ar
    33    21    16   ar
    34    10     1   ar
    35    32    29    1
    36     9     4   ar
    37    14     7   ar
    38    27    28    1
@<TRIPOS>MOLECULE
*****
 34 38 0 0 0
SMALL
GASTEIGER

@<TRIPOS>ATOM
      1 C         139.2915  139.3552  164.7124 C.ar    1  UNL1        0.0016
      2 C         138.0773  138.7352  165.3378 C.ar    1  UNL1        0.0016
      3 C         137.8644  138.8322  166.8194 C.ar    1  UNL1        0.0191
      4 C         138.8658  139.5492  167.6756 C.ar    1  UNL1        0.0828
      5 N         138.6529  139.6462  169.1573 N.ar    1  UNL1       -0.2422
      6 C         139.6543  140.3633  170.0135 C.ar    1  UNL1        0.1175
      7 C         140.8686  140.9833  169.3880 C.ar    1  UNL1        0.0989
      8 C         141.0814  140.8863  167.9064 C.ar    1  UNL1        0.0826
      9 C         140.0800  140.1693  167.0502 C.ar    1  UNL1        0.0350
     10 C         140.2929  140.0722  165.5686 C.ar    1  UNL1        0.0030
     11 N         142.3638  141.5905  167.5753 N.ar    1  UNL1       -0.2815
     12 C         142.9435  142.1227  168.8523 C.ar    1  UNL1        0.3316
     13 O         144.2227  142.8947  168.9855 O.2     1  UNL1       -0.2463
     14 N         142.0194  141.7474  169.9727 N.ar    1  UNL1       -0.2765
     15 C         142.2122  142.0782  171.4229 C.3     1  UNL1        0.1352
     16 C         139.9302  139.0643  160.2674 C.ar    1  UNL1        0.2249
     17 C         139.2296  137.9576  160.9984 C.ar    1  UNL1        0.0577
     18 C         139.0167  138.0546  162.4801 C.ar    1  UNL1        0.0063
     19 C         139.5044  139.2582  163.2307 C.ar    1  UNL1        0.0194
     20 C         140.2050  140.3649  162.4996 C.ar    1  UNL1        0.1020
     21 N         140.4179  140.2680  161.0180 N.ar    1  UNL1       -0.2101
     22 O         140.1431  138.9673  158.7858 O.3     1  UNL1       -0.4602
     23 C         141.4684  138.5173  158.2464 C.3     1  UNL1        0.2085
     24 C         142.6057  138.2418  159.1850 C.3     1  UNL1        0.0644
     25 C         143.4969  139.3621  159.6326 C.3     1  UNL1        0.0725
     26 C         143.4233  138.5110  162.0862 C.3     1  UNL1        0.0859
     27 N         143.7326  139.5941  161.0957 N.3     1  UNL1       -0.2962
     28 H         144.7221  139.8173  161.2027 H       1  UNL1        0.1233
     29 C         142.9615  141.7367  166.2073 C.3     1  UNL1        0.0947
     30 C         143.7877  140.8618  165.3118 C.3     1  UNL1        0.0524
     31 C         143.8068  141.9435  164.2727 C.3     1  UNL1        0.1191
     32 C         142.9807  142.8184  165.1683 C.3     1  UNL1        0.0524
     33 O         144.4045  142.0898  162.9048 O.3     1  UNL1       -0.3534
     34 C         144.5353  143.4494  162.2849 C.3     1  UNL1        0.1740
@<TRIPOS>BOND
     1    26    27    1
     2    27    25    1
     3    25    24    1
     4    24    23    1
     5    23    22    1
     6    22    16    1
     7    16    17   ar
     8    17    18   ar
     9    18    19   ar
    10    19     1    1
    11     1     2   ar
    12     2     3   ar
    13     3     4   ar
    14     4     5   ar
    15     5     6   ar
    16     6     7   ar
    17     7     8   ar
    18     8     9   ar
    19     9    10   ar
    20     8    11   ar
    21    29    11    1
    22    29    30    1
    23    30    31    1
    24    31    33    1
    25    33    34    1
    26    31    32    1
    27    11    12   ar
    28    12    13    2
    29    12    14   ar
    30    14    15    1
    31    19    20   ar
    32    20    21   ar
    33    21    16   ar
    34    10     1   ar
    35    32    29    1
    36     9     4   ar
    37    14     7   ar
    38    27    28    1
@<TRIPOS>MOLECULE
*****
 34 38 0 0 0
SMALL
GASTEIGER

@<TRIPOS>ATOM
      1 C         142.0951  142.4345  163.9148 C.ar    1  UNL1        0.0016
      2 C         142.8372  143.7326  163.7959 C.ar    1  UNL1        0.0016
      3 C         142.6496  144.5953  162.5832 C.ar    1  UNL1        0.0191
      4 C         141.7198  144.1599  161.4896 C.ar    1  UNL1        0.0828
      5 N         141.5322  145.0227  160.2769 N.ar    1  UNL1       -0.2422
      6 C         140.6025  144.5873  159.1833 C.ar    1  UNL1        0.1175
      7 C         139.8604  143.2891  159.3023 C.ar    1  UNL1        0.0989
      8 C         140.0480  142.4264  160.5149 C.ar    1  UNL1        0.0826
      9 C         140.9778  142.8618  161.6086 C.ar    1  UNL1        0.0350
     10 C         141.1654  141.9991  162.8212 C.ar    1  UNL1        0.0030
     11 N         139.1880  141.2079  160.3544 N.ar    1  UNL1       -0.2815
     12 C         138.4689  141.3176  159.0427 C.ar    1  UNL1        0.3316
     13 O         137.5037  140.3168  158.4799 O.2     1  UNL1       -0.2463
     14 N         138.8845  142.6039  158.3924 N.ar    1  UNL1       -0.2765
     15 C         138.4078  143.1151  157.0652 C.3     1  UNL1        0.1352
     16 C         142.6579  139.8462  167.5528 C.ar    1  UNL1        0.2249
     17 C         142.1251  139.2503  166.2835 C.ar    1  UNL1        0.0577
     18 C         141.9375  140.1131  165.0709 C.ar    1  UNL1        0.0063
     19 C         142.2827  141.5717  165.1275 C.ar    1  UNL1        0.0194
     20 C         142.8156  142.1676  166.3967 C.ar    1  UNL1        0.1020
     21 N         143.0032  141.3049  167.6094 N.ar    1  UNL1       -0.2101
     22 O         142.8456  138.9835  168.7654 O.3     1  UNL1       -0.4602
     23 C         142.3935  139.4711  170.1099 C.3     1  UNL1        0.2085
     24 C         141.0527  140.1271  170.2579 C.3     1  UNL1        0.0644
     25 C         140.8972  141.3230  171.1499 C.3     1  UNL1        0.0725
     26 C         142.7037  143.1105  170.6097 C.3     1  UNL1        0.0859
     27 N         142.1032  142.1157  171.5585 N.3     1  UNL1       -0.2962
     28 H         141.8458  142.6303  172.4007 H       1  UNL1        0.1233
     29 C         139.0682  140.0782  161.3339 C.3     1  UNL1        0.0947
     30 C         139.8018  138.7898  161.5618 C.3     1  UNL1        0.0524
     31 C         138.8989  138.4804  162.7189 C.3     1  UNL1        0.1191
     32 C         138.1653  139.7687  162.4910 C.3     1  UNL1        0.0524
     33 O         138.7791  137.3506  163.6983 O.3     1  UNL1       -0.3534
     34 C         138.9162  137.6148  165.1685 C.3     1  UNL1        0.1740
@<TRIPOS>BOND
     1    26    27    1
     2    27    25    1
     3    25    24    1
     4    24    23    1
     5    23    22    1
     6    22    16    1
     7    16    17   ar
     8    17    18   ar
     9    18    19   ar
    10    19     1    1
    11     1     2   ar
    12     2     3   ar
    13     3     4   ar
    14     4     5   ar
    15     5     6   ar
    16     6     7   ar
    17     7     8   ar
    18     8     9   ar
    19     9    10   ar
    20     8    11   ar
    21    29    11    1
    22    29    30    1
    23    30    31    1
    24    31    33    1
    25    33    34    1
    26    31    32    1
    27    11    12   ar
    28    12    13    2
    29    12    14   ar
    30    14    15    1
    31    19    20   ar
    32    20    21   ar
    33    21    16   ar
    34    10     1   ar
    35    32    29    1
    36     9     4   ar
    37    14     7   ar
    38    27    28    1
@<TRIPOS>MOLECULE
*****
 34 38 0 0 0
SMALL
GASTEIGER

@<TRIPOS>ATOM
      1 C         142.8561  142.4142  163.7354 C.ar    1  UNL1        0.0016
      2 C         144.0428  143.1513  164.2817 C.ar    1  UNL1        0.0016
      3 C         144.2728  143.2096  165.7628 C.ar    1  UNL1        0.0191
      4 C         143.3160  142.5308  166.6976 C.ar    1  UNL1        0.0828
      5 N         143.5460  142.5891  168.1788 N.ar    1  UNL1       -0.2422
      6 C         142.5893  141.9104  169.1136 C.ar    1  UNL1        0.1175
      7 C         141.4025  141.1733  168.5673 C.ar    1  UNL1        0.0989
      8 C         141.1725  141.1150  167.0862 C.ar    1  UNL1        0.0826
      9 C         142.1293  141.7938  166.1514 C.ar    1  UNL1        0.0350
     10 C         141.8993  141.7355  164.6703 C.ar    1  UNL1        0.0030
     11 N         139.9245  140.3196  166.8419 N.ar    1  UNL1       -0.2815
     12 C         139.3832  139.8863  168.1720 C.ar    1  UNL1        0.3316
     13 O         138.1456  139.0688  168.3963 O.2     1  UNL1       -0.2463
     14 N         140.2966  140.4139  169.2384 N.ar    1  UNL1       -0.2765
     15 C         140.1330  140.2168  170.7163 C.3     1  UNL1        0.1352
     16 C         142.1661  142.2393  159.2920 C.ar    1  UNL1        0.2249
     17 C         141.1842  141.6009  160.2292 C.ar    1  UNL1        0.0577
     18 C         141.4142  141.6592  161.7103 C.ar    1  UNL1        0.0063
     19 C         142.6261  142.3559  162.2543 C.ar    1  UNL1        0.0194
     20 C         143.6080  142.9943  161.3171 C.ar    1  UNL1        0.1020
     21 N         143.3780  142.9361  159.8360 N.ar    1  UNL1       -0.2101
     22 O         141.9362  142.1811  157.8109 O.3     1  UNL1       -0.4602
     23 C         141.2691  143.3271  157.1099 C.3     1  UNL1        0.2085
     24 C         142.0058  144.6195  156.9168 C.3     1  UNL1        0.0644
     25 C         141.7354  145.7802  157.8276 C.3     1  UNL1        0.0725
     26 C         140.6671  145.3986  160.1649 C.3     1  UNL1        0.0859
     27 N         141.8810  145.6187  159.3117 N.3     1  UNL1       -0.2962
     28 H         142.4955  144.8185  159.4619 H       1  UNL1        0.1233
     29 C         139.3234  140.0116  165.5026 C.3     1  UNL1        0.0947
     30 C         139.4391  138.8818  164.5226 C.3     1  UNL1        0.0524
     31 C         138.4733  139.5759  163.6084 C.3     1  UNL1        0.1191
     32 C         138.3576  140.7056  164.5884 C.3     1  UNL1        0.0524
     33 O         137.8722  139.2679  162.2691 O.3     1  UNL1       -0.3534
     34 C         137.6646  140.3669  161.2696 C.3     1  UNL1        0.1740
@<TRIPOS>BOND
     1    26    27    1
     2    27    25    1
     3    25    24    1
     4    24    23    1
     5    23    22    1
     6    22    16    1
     7    16    17   ar
     8    17    18   ar
     9    18    19   ar
    10    19     1    1
    11     1     2   ar
    12     2     3   ar
    13     3     4   ar
    14     4     5   ar
    15     5     6   ar
    16     6     7   ar
    17     7     8   ar
    18     8     9   ar
    19     9    10   ar
    20     8    11   ar
    21    29    11    1
    22    29    30    1
    23    30    31    1
    24    31    33    1
    25    33    34    1
    26    31    32    1
    27    11    12   ar
    28    12    13    2
    29    12    14   ar
    30    14    15    1
    31    19    20   ar
    32    20    21   ar
    33    21    16   ar
    34    10     1   ar
    35    32    29    1
    36     9     4   ar
    37    14     7   ar
    38    27    28    1
@<TRIPOS>MOLECULE
*****
 34 38 0 0 0
SMALL
GASTEIGER

@<TRIPOS>ATOM
      1 C         143.6210  141.3638  163.4954 C.ar    1  UNL1        0.0016
      2 C         144.6863  142.3143  163.9554 C.ar    1  UNL1        0.0016
      3 C         144.6785  142.8240  165.3661 C.ar    1  UNL1        0.0191
      4 C         143.6053  142.3831  166.3169 C.ar    1  UNL1        0.0828
      5 N         143.5974  142.8928  167.7276 N.ar    1  UNL1       -0.2422
      6 C         142.5242  142.4520  168.6784 C.ar    1  UNL1        0.1175
      7 C         141.4589  141.5014  168.2183 C.ar    1  UNL1        0.0989
      8 C         141.4668  140.9918  166.8076 C.ar    1  UNL1        0.0826
      9 C         142.5399  141.4326  165.8569 C.ar    1  UNL1        0.0350
     10 C         142.5478  140.9230  164.4462 C.ar    1  UNL1        0.0030
     11 N         140.2949  140.0703  166.6412 N.ar    1  UNL1       -0.2815
     12 C         139.5629  140.0105  167.9490 C.ar    1  UNL1        0.3316
     13 O         138.3282  139.2071  168.2324 O.2     1  UNL1       -0.2463
     14 N         140.2822  140.8950  168.9238 N.ar    1  UNL1       -0.2765
     15 C         139.8932  141.1315  170.3530 C.3     1  UNL1        0.1352
     16 C         143.6446  139.8347  159.2632 C.ar    1  UNL1        0.2249
     17 C         143.1557  141.2221  159.5567 C.ar    1  UNL1        0.0577
     18 C         143.1479  141.7318  160.9674 C.ar    1  UNL1        0.0063
     19 C         143.6289  140.8541  162.0847 C.ar    1  UNL1        0.0194
     20 C         144.1177  139.4667  161.7912 C.ar    1  UNL1        0.1020
     21 N         144.1256  138.9570  160.3805 N.ar    1  UNL1       -0.2101
     22 O         143.6524  139.3249  157.8525 O.3     1  UNL1       -0.4602
     23 C         142.5855  138.3766  157.3918 C.3     1  UNL1        0.2085
     24 C         142.9576  137.0052  156.9112 C.3     1  UNL1        0.0644
     25 C         143.8112  136.8451  155.6882 C.3     1  UNL1        0.0725
     26 C         144.7786  138.9832  154.5735 C.3     1  UNL1        0.0859
     27 N         144.9606  137.7784  155.4484 N.3     1  UNL1       -0.2962
     28 H         145.2578  138.1204  156.3623 H       1  UNL1        0.1233
     29 C         139.9209  139.3374  165.3870 C.3     1  UNL1        0.0947
     30 C         140.2713  138.0056  164.7923 C.3     1  UNL1        0.0524
     31 C         139.3920  138.3007  163.6134 C.3     1  UNL1        0.1191
     32 C         139.0417  139.6325  164.2081 C.3     1  UNL1        0.0524
     33 O         139.0180  137.5678  162.3593 O.3     1  UNL1       -0.3534
     34 C         137.9166  138.0904  161.4853 C.3     1  UNL1        0.1740
@<TRIPOS>BOND
     1    26    27    1
     2    27    25    1
     3    25    24    1
     4    24    23    1
     5    23    22    1
     6    22    16    1
     7    16    17   ar
     8    17    18   ar
     9    18    19   ar
    10    19     1    1
    11     1     2   ar
    12     2     3   ar
    13     3     4   ar
    14     4     5   ar
    15     5     6   ar
    16     6     7   ar
    17     7     8   ar
    18     8     9   ar
    19     9    10   ar
    20     8    11   ar
    21    29    11    1
    22    29    30    1
    23    30    31    1
    24    31    33    1
    25    33    34    1
    26    31    32    1
    27    11    12   ar
    28    12    13    2
    29    12    14   ar
    30    14    15    1
    31    19    20   ar
    32    20    21   ar
    33    21    16   ar
    34    10     1   ar
    35    32    29    1
    36     9     4   ar
    37    14     7   ar
    38    27    28    1
@<TRIPOS>MOLECULE
*****
 34 38 0 0 0
SMALL
GASTEIGER

@<TRIPOS>ATOM
      1 C         138.8469  140.4854  162.8047 C.ar    1  UNL1        0.0016
      2 C         137.9912  139.3343  162.3659 C.ar    1  UNL1        0.0016
      3 C         137.5155  139.2521  160.9457 C.ar    1  UNL1        0.0191
      4 C         137.8956  140.3210  159.9644 C.ar    1  UNL1        0.0828
      5 N         137.4199  140.2387  158.5441 N.ar    1  UNL1       -0.2422
      6 C         137.7999  141.3075  157.5628 C.ar    1  UNL1        0.1175
      7 C         138.6557  142.4587  158.0017 C.ar    1  UNL1        0.0989
      8 C         139.1313  142.5410  159.4219 C.ar    1  UNL1        0.0826
      9 C         138.7513  141.4721  160.4032 C.ar    1  UNL1        0.0350
     10 C         139.2269  141.5543  161.8234 C.ar    1  UNL1        0.0030
     11 N         139.9569  143.7854  159.5628 N.ar    1  UNL1       -0.2815
     12 C         139.9914  144.4722  158.2298 C.ar    1  UNL1        0.3316
     13 O         140.7049  145.7540  157.9165 O.2     1  UNL1       -0.2463
     14 N         139.1872  143.6522  157.2649 N.ar    1  UNL1       -0.2765
     15 C         138.9553  143.9701  155.8174 C.3     1  UNL1        0.1352
     16 C         140.2740  140.7324  167.0654 C.ar    1  UNL1        0.2249
     17 C         139.2663  139.6936  166.6710 C.ar    1  UNL1        0.0577
     18 C         138.7906  139.6113  165.2507 C.ar    1  UNL1        0.0063
     19 C         139.3226  140.5677  164.2250 C.ar    1  UNL1        0.0194
     20 C         140.3303  141.6065  164.6194 C.ar    1  UNL1        0.1020
     21 N         140.8060  141.6888  166.0395 N.ar    1  UNL1       -0.2101
     22 O         140.7497  140.8147  168.4855 O.3     1  UNL1       -0.4602
     23 C         139.8060  141.2461  169.5687 C.3     1  UNL1        0.2085
     24 C         139.9070  142.6273  170.1452 C.3     1  UNL1        0.0644
     25 C         141.1002  143.4828  169.8382 C.3     1  UNL1        0.0725
     26 C         143.5209  142.5434  169.9279 C.3     1  UNL1        0.0859
     27 N         142.3852  143.2726  170.5827 N.3     1  UNL1       -0.2962
     28 H         142.7348  144.1974  170.8337 H       1  UNL1        0.1233
     29 C         140.6297  144.2597  160.8167 C.3     1  UNL1        0.0947
     30 C         140.1757  144.9538  162.0666 C.3     1  UNL1        0.0524
     31 C         141.5812  144.9305  162.5901 C.3     1  UNL1        0.1191
     32 C         142.0352  144.2363  161.3403 C.3     1  UNL1        0.0524
     33 O         142.2540  145.4047  163.8440 O.3     1  UNL1       -0.3534
     34 C         143.5603  144.8017  164.2684 C.3     1  UNL1        0.1740
@<TRIPOS>BOND
     1    26    27    1
     2    27    25    1
     3    25    24    1
     4    24    23    1
     5    23    22    1
     6    22    16    1
     7    16    17   ar
     8    17    18   ar
     9    18    19   ar
    10    19     1    1
    11     1     2   ar
    12     2     3   ar
    13     3     4   ar
    14     4     5   ar
    15     5     6   ar
    16     6     7   ar
    17     7     8   ar
    18     8     9   ar
    19     9    10   ar
    20     8    11   ar
    21    29    11    1
    22    29    30    1
    23    30    31    1
    24    31    33    1
    25    33    34    1
    26    31    32    1
    27    11    12   ar
    28    12    13    2
    29    12    14   ar
    30    14    15    1
    31    19    20   ar
    32    20    21   ar
    33    21    16   ar
    34    10     1   ar
    35    32    29    1
    36     9     4   ar
    37    14     7   ar
    38    27    28    1
@<TRIPOS>MOLECULE
*****
 34 38 0 0 0
SMALL
GASTEIGER

@<TRIPOS>ATOM
      1 C         139.1693  139.4030  162.8675 C.ar    1  UNL1        0.0016
      2 C         139.0872  138.0769  162.1714 C.ar    1  UNL1        0.0016
      3 C         139.1922  138.0066  160.6768 C.ar    1  UNL1        0.0191
      4 C         139.3793  139.2625  159.8782 C.ar    1  UNL1        0.0828
      5 N         139.4843  139.1922  158.3835 N.ar    1  UNL1       -0.2422
      6 C         139.6713  140.4481  157.5849 C.ar    1  UNL1        0.1175
      7 C         139.7534  141.7743  158.2811 C.ar    1  UNL1        0.0989
      8 C         139.6484  141.8446  159.7757 C.ar    1  UNL1        0.0826
      9 C         139.4614  140.5887  160.5743 C.ar    1  UNL1        0.0350
     10 C         139.3564  140.6589  162.0689 C.ar    1  UNL1        0.0030
     11 N         139.7638  143.2841  160.1813 N.ar    1  UNL1       -0.2815
     12 C         139.9401  144.1034  158.9373 C.ar    1  UNL1        0.3316
     13 O         140.0955  145.5943  158.8782 O.2     1  UNL1       -0.2463
     14 N         139.9337  143.1703  157.7629 N.ar    1  UNL1       -0.2765
     15 C         140.0815  143.5642  156.3231 C.3     1  UNL1        0.1352
     16 C         138.8543  139.6139  167.3516 C.ar    1  UNL1        0.2249
     17 C         138.3683  138.3968  166.6220 C.ar    1  UNL1        0.0577
     18 C         138.4733  138.3265  165.1273 C.ar    1  UNL1        0.0063
     19 C         139.0643  139.4733  164.3622 C.ar    1  UNL1        0.0194
     20 C         139.5504  140.6905  165.0918 C.ar    1  UNL1        0.1020
     21 N         139.4454  140.7608  166.5864 N.ar    1  UNL1       -0.2101
     22 O         138.7494  139.6843  168.8462 O.3     1  UNL1       -0.4602
     23 C         139.4838  140.7530  169.6001 C.3     1  UNL1        0.2085
     24 C         140.9130  140.5396  170.0026 C.3     1  UNL1        0.0644
     25 C         141.3774  140.9525  171.3677 C.3     1  UNL1        0.0725
     26 C         142.6244  142.9896  170.3453 C.3     1  UNL1        0.0859
     27 N         142.1376  142.2333  171.5458 N.3     1  UNL1       -0.2962
     28 H         141.5303  142.8662  172.0663 H       1  UNL1        0.1233
     29 C         139.7120  143.8115  161.5846 C.3     1  UNL1        0.0947
     30 C         138.6186  144.0920  162.5725 C.3     1  UNL1        0.0524
     31 C         139.6386  144.5574  163.5691 C.3     1  UNL1        0.1191
     32 C         140.7319  144.2769  162.5811 C.3     1  UNL1        0.0524
     33 O         139.5867  145.0849  164.9723 O.3     1  UNL1       -0.3534
     34 C         138.3164  144.9869  165.7639 C.3     1  UNL1        0.1740
@<TRIPOS>BOND
     1    26    27    1
     2    27    25    1
     3    25    24    1
     4    24    23    1
     5    23    22    1
     6    22    16    1
     7    16    17   ar
     8    17    18   ar
     9    18    19   ar
    10    19     1    1
    11     1     2   ar
    12     2     3   ar
    13     3     4   ar
    14     4     5   ar
    15     5     6   ar
    16     6     7   ar
    17     7     8   ar
    18     8     9   ar
    19     9    10   ar
    20     8    11   ar
    21    29    11    1
    22    29    30    1
    23    30    31    1
    24    31    33    1
    25    33    34    1
    26    31    32    1
    27    11    12   ar
    28    12    13    2
    29    12    14   ar
    30    14    15    1
    31    19    20   ar
    32    20    21   ar
    33    21    16   ar
    34    10     1   ar
    35    32    29    1
    36     9     4   ar
    37    14     7   ar
    38    27    28    1
@<TRIPOS>MOLECULE
*****
 34 38 0 0 0
SMALL
GASTEIGER

@<TRIPOS>ATOM
      1 C         141.0708  144.0592  162.6588 C.ar    1  UNL1        0.0016
      2 C         140.2748  145.2731  162.2810 C.ar    1  UNL1        0.0016
      3 C         140.2965  145.7742  160.8674 C.ar    1  UNL1        0.0191
      4 C         141.1143  145.0613  159.8315 C.ar    1  UNL1        0.0828
      5 N         141.1360  145.5624  158.4178 N.ar    1  UNL1       -0.2422
      6 C         141.9537  144.8496  157.3819 C.ar    1  UNL1        0.1175
      7 C         142.7498  143.6356  157.7597 C.ar    1  UNL1        0.0989
      8 C         142.7281  143.1346  159.1733 C.ar    1  UNL1        0.0826
      9 C         141.9103  143.8474  160.2092 C.ar    1  UNL1        0.0350
     10 C         141.8886  143.3464  161.6229 C.ar    1  UNL1        0.0030
     11 N         143.6075  141.9218  159.2487 N.ar    1  UNL1       -0.2815
     12 C         144.1727  141.6733  157.8817 C.ar    1  UNL1        0.3316
     13 O         145.1044  140.5608  157.5017 O.2     1  UNL1       -0.2463
     14 N         143.6426  142.7325  156.9614 N.ar    1  UNL1       -0.2765
     15 C         143.9512  142.8654  155.4995 C.3     1  UNL1        0.1352
     16 C         141.0057  142.5558  166.8998 C.ar    1  UNL1        0.2249
     17 C         139.8765  143.3986  166.3854 C.ar    1  UNL1        0.0577
     18 C         139.8982  143.8997  164.9717 C.ar    1  UNL1        0.0063
     19 C         141.0491  143.5581  164.0725 C.ar    1  UNL1        0.0194
     20 C         142.1784  142.7154  164.5869 C.ar    1  UNL1        0.1020
     21 N         142.1567  142.2143  166.0005 N.ar    1  UNL1       -0.2101
     22 O         140.9841  142.0547  168.3134 O.3     1  UNL1       -0.4602
     23 C         140.5737  142.9711  169.4277 C.3     1  UNL1        0.2085
     24 C         140.2134  142.4057  170.7696 C.3     1  UNL1        0.0644
     25 C         140.6489  141.0192  171.1407 C.3     1  UNL1        0.0725
     26 C         143.0321  140.0833  170.6998 C.3     1  UNL1        0.0859
     27 N         142.0541  140.7732  171.6041 N.3     1  UNL1       -0.2962
     28 H         142.4536  141.6843  171.8295 H       1  UNL1        0.1233
     29 C         143.8747  141.1015  160.4758 C.3     1  UNL1        0.0947
     30 C         144.6503  141.3099  161.7427 C.3     1  UNL1        0.0524
     31 C         144.2527  139.9415  162.2112 C.3     1  UNL1        0.1191
     32 C         143.4771  139.7331  160.9443 C.3     1  UNL1        0.0524
     33 O         144.5199  139.1212  163.4383 O.3     1  UNL1       -0.3534
     34 C         143.5267  139.1075  164.5622 C.3     1  UNL1        0.1740
@<TRIPOS>BOND
     1    26    27    1
     2    27    25    1
     3    25    24    1
     4    24    23    1
     5    23    22    1
     6    22    16    1
     7    16    17   ar
     8    17    18   ar
     9    18    19   ar
    10    19     1    1
    11     1     2   ar
    12     2     3   ar
    13     3     4   ar
    14     4     5   ar
    15     5     6   ar
    16     6     7   ar
    17     7     8   ar
    18     8     9   ar
    19     9    10   ar
    20     8    11   ar
    21    29    11    1
    22    29    30    1
    23    30    31    1
    24    31    33    1
    25    33    34    1
    26    31    32    1
    27    11    12   ar
    28    12    13    2
    29    12    14   ar
    30    14    15    1
    31    19    20   ar
    32    20    21   ar
    33    21    16   ar
    34    10     1   ar
    35    32    29    1
    36     9     4   ar
    37    14     7   ar
    38    27    28    1
@<TRIPOS>MOLECULE
*****
 34 38 0 0 0
SMALL
GASTEIGER

@<TRIPOS>ATOM
      1 C         143.4912  141.4809  163.7745 C.ar    1  UNL1        0.0016
      2 C         144.4300  142.4566  164.4199 C.ar    1  UNL1        0.0016
      3 C         144.2250  142.8611  165.8497 C.ar    1  UNL1        0.0191
      4 C         143.0812  142.2899  166.6341 C.ar    1  UNL1        0.0828
      5 N         142.8762  142.6944  168.0639 N.ar    1  UNL1       -0.2422
      6 C         141.7323  142.1232  168.8483 C.ar    1  UNL1        0.1175
      7 C         140.7935  141.1474  168.2029 C.ar    1  UNL1        0.0989
      8 C         140.9985  140.7429  166.7731 C.ar    1  UNL1        0.0826
      9 C         142.1423  141.3141  165.9887 C.ar    1  UNL1        0.0350
     10 C         142.3474  140.9097  164.5589 C.ar    1  UNL1        0.0030
     11 N         139.9183  139.7685  166.4076 N.ar    1  UNL1       -0.2815
     12 C         139.0456  139.5708  167.6115 C.ar    1  UNL1        0.3316
     13 O         137.8432  138.6776  167.6918 O.2     1  UNL1       -0.2463
     14 N         139.5866  140.4230  168.7211 N.ar    1  UNL1       -0.2765
     15 C         139.0200  140.5317  170.1057 C.3     1  UNL1        0.1352
     16 C         144.1062  140.2673  159.4850 C.ar    1  UNL1        0.2249
     17 C         143.9119  141.7129  159.8350 C.ar    1  UNL1        0.0577
     18 C         143.7069  142.1174  161.2648 C.ar    1  UNL1        0.0063
     19 C         143.6962  141.0764  162.3447 C.ar    1  UNL1        0.0194
     20 C         143.8905  139.6308  161.9947 C.ar    1  UNL1        0.1020
     21 N         144.0955  139.2262  160.5649 N.ar    1  UNL1       -0.2101
     22 O         144.3112  139.8627  158.0553 O.3     1  UNL1       -0.4602
     23 C         143.2530  140.1566  157.0336 C.3     1  UNL1        0.2085
     24 C         143.2440  141.4768  156.3215 C.3     1  UNL1        0.0644
     25 C         144.5099  142.2723  156.2004 C.3     1  UNL1        0.0725
     26 C         147.0669  142.4719  156.6153 C.3     1  UNL1        0.0859
     27 N         145.8314  141.6290  156.5001 N.3     1  UNL1       -0.2962
     28 H         145.7256  141.1388  157.3882 H       1  UNL1        0.1233
     29 C         139.7417  139.1078  165.0726 C.3     1  UNL1        0.0947
     30 C         140.2365  137.8393  164.4433 C.3     1  UNL1        0.0524
     31 C         139.4920  138.1734  163.1846 C.3     1  UNL1        0.1191
     32 C         138.9973  139.4419  163.8139 C.3     1  UNL1        0.0524
     33 O         139.3155  137.5127  161.8496 O.3     1  UNL1       -0.3534
     34 C         139.3589  138.3337  160.5949 C.3     1  UNL1        0.1740
@<TRIPOS>BOND
     1    26    27    1
     2    27    25    1
     3    25    24    1
     4    24    23    1
     5    23    22    1
     6    22    16    1
     7    16    17   ar
     8    17    18   ar
     9    18    19   ar
    10    19     1    1
    11     1     2   ar
    12     2     3   ar
    13     3     4   ar
    14     4     5   ar
    15     5     6   ar
    16     6     7   ar
    17     7     8   ar
    18     8     9   ar
    19     9    10   ar
    20     8    11   ar
    21    29    11    1
    22    29    30    1
    23    30    31    1
    24    31    33    1
    25    33    34    1
    26    31    32    1
    27    11    12   ar
    28    12    13    2
    29    12    14   ar
    30    14    15    1
    31    19    20   ar
    32    20    21   ar
    33    21    16   ar
    34    10     1   ar
    35    32    29    1
    36     9     4   ar
    37    14     7   ar
    38    27    28    1
