@<TRIPOS>MOLECULE
*****
 32 36 0 0 0
SMALL
GASTEIGER

@<TRIPOS>ATOM
      1 N         139.0103  140.2462  164.6611 N.pl3   1  UNL1       -0.3054
      2 C         138.3047  139.2764  165.5620 C.3     1  UNL1        0.0910
      3 C         138.8167  137.9006  165.2538 C.3     1  UNL1        0.0245
      4 C         139.8387  138.0201  164.1624 C.3     1  UNL1        0.0372
      5 C         140.7869  137.2437  163.2973 C.3     1  UNL1        0.0738
      6 N         141.4924  138.2135  162.3965 N.3     1  UNL1       -0.2712
      7 C         140.9804  139.5893  162.7047 C.3     1  UNL1        0.0921
      8 C         139.9584  139.4698  163.7961 C.3     1  UNL1        0.0901
      9 C         137.8658  142.3382  163.6296 C.ar    1  UNL1        0.1519
     10 C         137.6596  143.8236  163.5991 C.ar    1  UNL1        0.0382
     11 C         138.3915  144.7026  164.5696 C.ar    1  UNL1        0.0032
     12 C         139.3297  144.0961  165.5706 C.ar    1  UNL1        0.0015
     13 C         139.5359  142.6106  165.6011 C.ar    1  UNL1        0.0176
     14 C         138.8040  141.7316  164.6306 C.ar    1  UNL1        0.0823
     15 C         137.7869  141.0598  161.3692 C.3     1  UNL1        0.2525
     16 O         137.1339  141.4593  162.6591 O.3     1  UNL1       -0.4702
     17 C         142.5282  137.8682  161.3679 C.3     1  UNL1        0.0731
     18 C         143.9443  138.3299  161.5452 C.3     1  UNL1        0.0294
     19 C         144.2304  139.6093  162.2740 C.3     1  UNL1        0.0666
     20 S         144.7540  139.5711  163.6792 S.3     1  UNL1       -0.0756
     21 C         144.0168  140.2841  164.7738 C.ar    1  UNL1        0.1933
     22 N         143.7726  141.7619  164.8550 N.ar    1  UNL1       -0.1221
     23 N         142.9993  142.0356  166.1108 N.ar    1  UNL1       -0.1266
     24 C         142.7656  140.7270  166.8058 C.ar    1  UNL1        0.1862
     25 N         143.3944  139.6446  165.9795 N.ar    1  UNL1       -0.2872
     26 C         143.4000  138.1797  166.3022 C.3     1  UNL1        0.1340
     27 C         142.0319  140.5346  168.0999 C.ar    1  UNL1        0.1362
     28 C         140.6030  140.0785  168.0912 C.ar    1  UNL1        0.1211
     29 N         139.8693  139.8861  169.3854 N.ar    1  UNL1       -0.2390
     30 C         140.5645  140.1499  170.6881 C.ar    1  UNL1        0.1195
     31 C         141.9935  140.6061  170.6967 C.ar    1  UNL1        0.1196
     32 N         142.7272  140.7985  169.4027 N.ar    1  UNL1       -0.2375
@<TRIPOS>BOND
     1    15    16    1
     2    16     9    1
     3     9    10   ar
     4    10    11   ar
     5    11    12   ar
     6    12    13   ar
     7    13    14   ar
     8    14     1    1
     9     1     2    1
    10     2     3    1
    11     3     4    1
    12     4     5    1
    13     5     6    1
    14     6    17    1
    15    17    18    1
    16    18    19    1
    17    19    20    1
    18    20    21    1
    19    21    22   ar
    20    22    23   ar
    21    23    24   ar
    22    24    27    1
    23    27    28   ar
    24    28    29   ar
    25    29    30   ar
    26    30    31   ar
    27    31    32   ar
    28    24    25   ar
    29    25    26    1
    30     6     7    1
    31     7     8    1
    32    14     9   ar
    33     8     1    1
    34     8     4    1
    35    25    21   ar
    36    32    27   ar
@<TRIPOS>MOLECULE
*****
 32 36 0 0 0
SMALL
GASTEIGER

@<TRIPOS>ATOM
      1 N         140.0668  143.5097  164.5333 N.pl3   1  UNL1       -0.3054
      2 C         139.0287  144.4216  165.1171 C.3     1  UNL1        0.0910
      3 C         137.6801  143.9196  164.6938 C.3     1  UNL1        0.0245
      4 C         137.8846  142.6975  163.8485 C.3     1  UNL1        0.0372
      5 C         137.1776  141.6319  163.0645 C.3     1  UNL1        0.0738
      6 N         138.2157  140.7201  162.4808 N.3     1  UNL1       -0.2712
      7 C         139.5643  141.2220  162.9040 C.3     1  UNL1        0.0921
      8 C         139.3597  142.4441  163.7493 C.3     1  UNL1        0.0901
      9 C         142.3109  144.6594  163.9070 C.ar    1  UNL1        0.1519
     10 C         143.7955  144.7899  164.0774 C.ar    1  UNL1        0.0382
     11 C         144.5205  143.9016  165.0444 C.ar    1  UNL1        0.0032
     12 C         143.7610  142.8826  165.8411 C.ar    1  UNL1        0.0015
     13 C         142.2764  142.7520  165.6707 C.ar    1  UNL1        0.0176
     14 C         141.5514  143.6403  164.7037 C.ar    1  UNL1        0.0823
     15 C         141.2029  145.0279  161.5861 C.3     1  UNL1        0.2525
     16 O         141.5860  145.5477  162.9400 O.3     1  UNL1       -0.4702
     17 C         137.9515  139.5174  161.6242 C.3     1  UNL1        0.0731
     18 C         138.7754  138.2763  161.7994 C.3     1  UNL1        0.0294
     19 C         138.7660  137.5488  163.1111 C.3     1  UNL1        0.0666
     20 S         139.8657  137.7798  164.1048 S.3     1  UNL1       -0.0756
     21 C         139.5785  138.5048  165.3862 C.ar    1  UNL1        0.1933
     22 N         138.2276  138.6879  166.0120 N.ar    1  UNL1       -0.1221
     23 N         138.4060  139.4702  167.2793 N.ar    1  UNL1       -0.1266
     24 C         139.8671  139.7706  167.4368 C.ar    1  UNL1        0.1862
     25 N         140.5917  139.1740  166.2668 N.ar    1  UNL1       -0.2872
     26 C         142.0701  139.2357  166.0206 C.3     1  UNL1        0.1340
     27 C         140.4936  140.5337  168.5660 C.ar    1  UNL1        0.1362
     28 C         141.2260  139.8013  169.6509 C.ar    1  UNL1        0.1211
     29 N         141.8525  140.5645  170.7801 N.ar    1  UNL1       -0.2390
     30 C         141.7466  142.0601  170.8244 C.ar    1  UNL1        0.1195
     31 C         141.0142  142.7926  169.7394 C.ar    1  UNL1        0.1196
     32 N         140.3877  142.0295  168.6102 N.ar    1  UNL1       -0.2375
@<TRIPOS>BOND
     1    15    16    1
     2    16     9    1
     3     9    10   ar
     4    10    11   ar
     5    11    12   ar
     6    12    13   ar
     7    13    14   ar
     8    14     1    1
     9     1     2    1
    10     2     3    1
    11     3     4    1
    12     4     5    1
    13     5     6    1
    14     6    17    1
    15    17    18    1
    16    18    19    1
    17    19    20    1
    18    20    21    1
    19    21    22   ar
    20    22    23   ar
    21    23    24   ar
    22    24    27    1
    23    27    28   ar
    24    28    29   ar
    25    29    30   ar
    26    30    31   ar
    27    31    32   ar
    28    24    25   ar
    29    25    26    1
    30     6     7    1
    31     7     8    1
    32    14     9   ar
    33     8     1    1
    34     8     4    1
    35    25    21   ar
    36    32    27   ar
@<TRIPOS>MOLECULE
*****
 32 36 0 0 0
SMALL
GASTEIGER

@<TRIPOS>ATOM
      1 N         142.7526  143.3786  163.8492 N.pl3   1  UNL1       -0.3054
      2 C         143.8606  143.9628  164.6743 C.3     1  UNL1        0.0910
      3 C         144.9317  142.9222  164.8153 C.3     1  UNL1        0.0245
      4 C         144.4856  141.6948  164.0773 C.3     1  UNL1        0.0372
      5 C         144.8718  140.2931  163.7084 C.3     1  UNL1        0.0738
      6 N         143.7638  139.7090  162.8832 N.3     1  UNL1       -0.2712
      7 C         142.6927  140.7496  162.7422 C.3     1  UNL1        0.0921
      8 C         143.1388  141.9769  163.4802 C.3     1  UNL1        0.0901
      9 C         141.3326  144.6517  162.0848 C.ar    1  UNL1        0.1519
     10 C         140.0614  145.3471  161.6968 C.ar    1  UNL1        0.0382
     11 C         138.9390  145.4647  162.6850 C.ar    1  UNL1        0.0032
     12 C         139.0879  144.8870  164.0613 C.ar    1  UNL1        0.0015
     13 C         140.3591  144.1917  164.4493 C.ar    1  UNL1        0.0176
     14 C         141.4814  144.0740  163.4611 C.ar    1  UNL1        0.0823
     15 C         142.4040  143.4856  160.0252 C.3     1  UNL1        0.2525
     16 O         142.4548  144.5341  161.0966 O.3     1  UNL1       -0.4702
     17 C         143.7323  138.3269  162.3013 C.3     1  UNL1        0.0731
     18 C         142.6171  137.9254  161.3820 C.3     1  UNL1        0.0294
     19 C         141.2187  137.7988  161.9098 C.3     1  UNL1        0.0666
     20 S         140.9844  137.2666  163.2926 S.3     1  UNL1       -0.0756
     21 C         140.1955  138.0717  164.2823 C.ar    1  UNL1        0.1933
     22 N         138.7142  138.3054  164.2478 N.ar    1  UNL1       -0.1221
     23 N         138.3525  139.1625  165.4244 N.ar    1  UNL1       -0.1266
     24 C         139.6103  139.4587  166.1862 C.ar    1  UNL1        0.1862
     25 N         140.7493  138.7845  165.4803 N.ar    1  UNL1       -0.2872
     26 C         142.1893  138.8174  165.8990 C.3     1  UNL1        0.1340
     27 C         139.7114  140.2840  167.4346 C.ar    1  UNL1        0.1362
     28 C         140.3203  141.6537  167.3808 C.ar    1  UNL1        0.1211
     29 N         140.4214  142.4791  168.6293 N.ar    1  UNL1       -0.2390
     30 C         139.9135  141.9347  169.9315 C.ar    1  UNL1        0.1195
     31 C         139.3046  140.5649  169.9853 C.ar    1  UNL1        0.1196
     32 N         139.2035  139.7395  168.7368 N.ar    1  UNL1       -0.2375
@<TRIPOS>BOND
     1    15    16    1
     2    16     9    1
     3     9    10   ar
     4    10    11   ar
     5    11    12   ar
     6    12    13   ar
     7    13    14   ar
     8    14     1    1
     9     1     2    1
    10     2     3    1
    11     3     4    1
    12     4     5    1
    13     5     6    1
    14     6    17    1
    15    17    18    1
    16    18    19    1
    17    19    20    1
    18    20    21    1
    19    21    22   ar
    20    22    23   ar
    21    23    24   ar
    22    24    27    1
    23    27    28   ar
    24    28    29   ar
    25    29    30   ar
    26    30    31   ar
    27    31    32   ar
    28    24    25   ar
    29    25    26    1
    30     6     7    1
    31     7     8    1
    32    14     9   ar
    33     8     1    1
    34     8     4    1
    35    25    21   ar
    36    32    27   ar
@<TRIPOS>MOLECULE
*****
 32 36 0 0 0
SMALL
GASTEIGER

@<TRIPOS>ATOM
      1 N         139.0382  142.1710  163.6138 N.pl3   1  UNL1       -0.3054
      2 C         138.1569  143.0693  164.4301 C.3     1  UNL1        0.0910
      3 C         138.9413  144.3011  164.7729 C.3     1  UNL1        0.0245
      4 C         140.3072  144.1641  164.1684 C.3     1  UNL1        0.0372
      5 C         141.6362  144.8407  164.0067 C.3     1  UNL1        0.0738
      6 N         142.5174  143.9423  163.1905 N.3     1  UNL1       -0.2712
      7 C         141.7332  142.7105  162.8477 C.3     1  UNL1        0.0921
      8 C         140.3672  142.8476  163.4521 C.3     1  UNL1        0.0901
      9 C         137.9608  140.7403  161.7317 C.ar    1  UNL1        0.1519
     10 C         137.5800  139.4005  161.1749 C.ar    1  UNL1        0.0382
     11 C         137.8959  138.1516  161.9433 C.ar    1  UNL1        0.0032
     12 C         138.5925  138.2425  163.2686 C.ar    1  UNL1        0.0015
     13 C         138.9733  139.5823  163.8254 C.ar    1  UNL1        0.0176
     14 C         138.6574  140.8312  163.0570 C.ar    1  UNL1        0.0823
     15 C         138.6370  142.5359  159.9799 C.3     1  UNL1        0.2525
     16 O         137.6449  141.9891  160.9631 O.3     1  UNL1       -0.4702
     17 C         143.9342  144.2260  162.7877 C.3     1  UNL1        0.0731
     18 C         144.6090  143.3646  161.7618 C.3     1  UNL1        0.0294
     19 C         145.0699  141.9846  162.1270 C.3     1  UNL1        0.0666
     20 S         145.4271  141.6649  163.5484 S.3     1  UNL1       -0.0756
     21 C         144.5310  140.7832  164.3667 C.ar    1  UNL1        0.1933
     22 N         144.3072  139.3150  164.1560 N.ar    1  UNL1       -0.1221
     23 N         143.3393  138.8393  165.1985 N.ar    1  UNL1       -0.1266
     24 C         142.9648  140.0135  166.0535 C.ar    1  UNL1        0.1862
     25 N         143.7014  141.2148  165.5394 N.ar    1  UNL1       -0.2872
     26 C         143.6221  142.6040  166.0998 C.3     1  UNL1        0.1340
     27 C         142.0198  139.9904  167.2181 C.ar    1  UNL1        0.1362
     28 C         142.5121  139.5843  168.5755 C.ar    1  UNL1        0.1211
     29 N         141.5670  139.5612  169.7402 N.ar    1  UNL1       -0.2390
     30 C         140.1296  139.9442  169.5473 C.ar    1  UNL1        0.1195
     31 C         139.6373  140.3503  168.1898 C.ar    1  UNL1        0.1196
     32 N         140.5823  140.3734  167.0252 N.ar    1  UNL1       -0.2375
@<TRIPOS>BOND
     1    15    16    1
     2    16     9    1
     3     9    10   ar
     4    10    11   ar
     5    11    12   ar
     6    12    13   ar
     7    13    14   ar
     8    14     1    1
     9     1     2    1
    10     2     3    1
    11     3     4    1
    12     4     5    1
    13     5     6    1
    14     6    17    1
    15    17    18    1
    16    18    19    1
    17    19    20    1
    18    20    21    1
    19    21    22   ar
    20    22    23   ar
    21    23    24   ar
    22    24    27    1
    23    27    28   ar
    24    28    29   ar
    25    29    30   ar
    26    30    31   ar
    27    31    32   ar
    28    24    25   ar
    29    25    26    1
    30     6     7    1
    31     7     8    1
    32    14     9   ar
    33     8     1    1
    34     8     4    1
    35    25    21   ar
    36    32    27   ar
@<TRIPOS>MOLECULE
*****
 32 36 0 0 0
SMALL
GASTEIGER

@<TRIPOS>ATOM
      1 N         138.6843  141.5638  163.5576 N.pl3   1  UNL1       -0.3054
      2 C         137.5142  142.4768  163.3400 C.3     1  UNL1        0.0910
      3 C         138.0134  143.7150  162.6562 C.3     1  UNL1        0.0245
      4 C         139.4920  143.5673  162.4511 C.3     1  UNL1        0.0372
      5 C         140.7143  144.2413  161.9018 C.3     1  UNL1        0.0738
      6 N         141.8842  143.3283  162.1194 N.3     1  UNL1       -0.2712
      7 C         141.3852  142.0901  162.8032 C.3     1  UNL1        0.0921
      8 C         139.9066  142.2378  163.0082 C.3     1  UNL1        0.0901
      9 C         138.9699  138.9854  163.4150 C.ar    1  UNL1        0.1519
     10 C         138.9255  137.6355  164.0675 C.ar    1  UNL1        0.0382
     11 C         138.5511  137.5140  165.5149 C.ar    1  UNL1        0.0032
     12 C         138.2212  138.7424  166.3099 C.ar    1  UNL1        0.0015
     13 C         138.2656  140.0923  165.6574 C.ar    1  UNL1        0.0176
     14 C         138.6399  140.2139  164.2100 C.ar    1  UNL1        0.0823
     15 C         140.6934  138.6468  161.5006 C.3     1  UNL1        0.2525
     16 O         139.3442  139.1069  161.9676 O.3     1  UNL1       -0.4702
     17 C         143.3042  143.6049  161.7227 C.3     1  UNL1        0.0731
     18 C         144.0885  142.5698  160.9722 C.3     1  UNL1        0.0294
     19 C         144.7324  141.4346  161.7116 C.3     1  UNL1        0.0666
     20 S         145.3041  141.6593  163.0801 S.3     1  UNL1       -0.0756
     21 C         144.4931  141.3228  164.2963 C.ar    1  UNL1        0.1933
     22 N         144.0430  139.9513  164.7041 N.ar    1  UNL1       -0.1221
     23 N         143.2615  140.0796  165.9780 N.ar    1  UNL1       -0.1266
     24 C         143.2286  141.5304  166.3575 C.ar    1  UNL1        0.1862
     25 N         143.9898  142.2988  165.3181 N.ar    1  UNL1       -0.2872
     26 C         144.2091  143.7826  165.3032 C.3     1  UNL1        0.1340
     27 C         142.5531  142.1110  167.5644 C.ar    1  UNL1        0.1362
     28 C         143.3313  142.3261  168.8285 C.ar    1  UNL1        0.1211
     29 N         142.6558  142.9067  170.0355 N.ar    1  UNL1       -0.2390
     30 C         141.2021  143.2722  169.9782 C.ar    1  UNL1        0.1195
     31 C         140.4239  143.0571  168.7140 C.ar    1  UNL1        0.1196
     32 N         141.0994  142.4765  167.5071 N.ar    1  UNL1       -0.2375
@<TRIPOS>BOND
     1    15    16    1
     2    16     9    1
     3     9    10   ar
     4    10    11   ar
     5    11    12   ar
     6    12    13   ar
     7    13    14   ar
     8    14     1    1
     9     1     2    1
    10     2     3    1
    11     3     4    1
    12     4     5    1
    13     5     6    1
    14     6    17    1
    15    17    18    1
    16    18    19    1
    17    19    20    1
    18    20    21    1
    19    21    22   ar
    20    22    23   ar
    21    23    24   ar
    22    24    27    1
    23    27    28   ar
    24    28    29   ar
    25    29    30   ar
    26    30    31   ar
    27    31    32   ar
    28    24    25   ar
    29    25    26    1
    30     6     7    1
    31     7     8    1
    32    14     9   ar
    33     8     1    1
    34     8     4    1
    35    25    21   ar
    36    32    27   ar
@<TRIPOS>MOLECULE
*****
 32 36 0 0 0
SMALL
GASTEIGER

@<TRIPOS>ATOM
      1 N         142.2576  142.5850  166.1641 N.pl3   1  UNL1       -0.3054
      2 C         143.7420  142.4383  166.0055 C.3     1  UNL1        0.0910
      3 C         144.1486  143.1637  164.7572 C.3     1  UNL1        0.0245
      4 C         142.9156  143.7588  164.1443 C.3     1  UNL1        0.0372
      5 C         142.4049  144.5749  162.9940 C.3     1  UNL1        0.0738
      6 N         140.9207  144.7215  163.1526 N.3     1  UNL1       -0.2712
      7 C         140.5139  143.9961  164.4009 C.3     1  UNL1        0.0921
      8 C         141.7469  143.4011  165.0138 C.3     1  UNL1        0.0901
      9 C         141.1978  140.5358  167.3590 C.ar    1  UNL1        0.1519
     10 C         140.3695  139.9665  168.4724 C.ar    1  UNL1        0.0382
     11 C         139.7727  140.8768  169.5045 C.ar    1  UNL1        0.0032
     12 C         140.0043  142.3566  169.4231 C.ar    1  UNL1        0.0015
     13 C         140.8326  142.9259  168.3096 C.ar    1  UNL1        0.0176
     14 C         141.4293  142.0156  167.2776 C.ar    1  UNL1        0.0823
     15 C         142.9873  138.7829  166.6697 C.3     1  UNL1        0.2525
     16 O         141.7945  139.6254  166.3270 O.3     1  UNL1       -0.4702
     17 C         140.0039  145.4634  162.2257 C.3     1  UNL1        0.0731
     18 C         140.4352  145.7550  160.8189 C.3     1  UNL1        0.0294
     19 C         140.0256  144.8391  159.7038 C.3     1  UNL1        0.0666
     20 S         140.1927  143.3557  159.8519 S.3     1  UNL1       -0.0756
     21 C         139.3202  142.5943  160.8053 C.ar    1  UNL1        0.1933
     22 N         137.8350  142.7438  160.9529 N.ar    1  UNL1       -0.1221
     23 N         137.3766  141.7915  162.0173 N.ar    1  UNL1       -0.1266
     24 C         138.5786  141.0534  162.5277 C.ar    1  UNL1        0.1862
     25 N         139.7797  141.5495  161.7786 N.ar    1  UNL1       -0.2872
     26 C         141.1925  141.0828  161.9694 C.3     1  UNL1        0.1340
     27 C         138.5793  140.0035  163.5990 C.ar    1  UNL1        0.1362
     28 C         138.0865  140.3367  164.9759 C.ar    1  UNL1        0.1211
     29 N         138.0872  139.2867  166.0472 N.ar    1  UNL1       -0.2390
     30 C         138.5807  137.9036  165.7415 C.ar    1  UNL1        0.1195
     31 C         139.0735  137.5704  164.3645 C.ar    1  UNL1        0.1196
     32 N         139.0728  138.6203  163.2932 N.ar    1  UNL1       -0.2375
@<TRIPOS>BOND
     1    15    16    1
     2    16     9    1
     3     9    10   ar
     4    10    11   ar
     5    11    12   ar
     6    12    13   ar
     7    13    14   ar
     8    14     1    1
     9     1     2    1
    10     2     3    1
    11     3     4    1
    12     4     5    1
    13     5     6    1
    14     6    17    1
    15    17    18    1
    16    18    19    1
    17    19    20    1
    18    20    21    1
    19    21    22   ar
    20    22    23   ar
    21    23    24   ar
    22    24    27    1
    23    27    28   ar
    24    28    29   ar
    25    29    30   ar
    26    30    31   ar
    27    31    32   ar
    28    24    25   ar
    29    25    26    1
    30     6     7    1
    31     7     8    1
    32    14     9   ar
    33     8     1    1
    34     8     4    1
    35    25    21   ar
    36    32    27   ar
@<TRIPOS>MOLECULE
*****
 32 36 0 0 0
SMALL
GASTEIGER

@<TRIPOS>ATOM
      1 N         139.3023  140.2002  164.8175 N.pl3   1  UNL1       -0.3054
      2 C         138.3670  139.1179  165.2691 C.3     1  UNL1        0.0910
      3 C         139.0015  137.7958  164.9541 C.3     1  UNL1        0.0245
      4 C         140.3289  138.0608  164.3078 C.3     1  UNL1        0.0372
      5 C         141.5415  137.4075  163.7137 C.3     1  UNL1        0.0738
      6 N         142.4767  138.4898  163.2622 N.3     1  UNL1       -0.2712
      7 C         141.8423  139.8119  163.5771 C.3     1  UNL1        0.0921
      8 C         140.5149  139.5469  164.2234 C.3     1  UNL1        0.0901
      9 C         139.8659  142.4860  165.9163 C.ar    1  UNL1        0.1519
     10 C         139.6300  143.9624  166.0374 C.ar    1  UNL1        0.0382
     11 C         138.5948  144.6294  165.1810 C.ar    1  UNL1        0.0032
     12 C         137.7954  143.8199  164.2033 C.ar    1  UNL1        0.0015
     13 C         138.0313  142.3435  164.0822 C.ar    1  UNL1        0.0176
     14 C         139.0665  141.6766  164.9386 C.ar    1  UNL1        0.0823
     15 C         142.3583  142.0682  166.5190 C.3     1  UNL1        0.2525
     16 O         140.9011  141.8191  166.7728 O.3     1  UNL1       -0.4702
     17 C         143.8121  138.2857  162.6101 C.3     1  UNL1        0.0731
     18 C         143.9357  138.3537  161.1168 C.3     1  UNL1        0.0294
     19 C         142.9417  137.6407  160.2486 C.3     1  UNL1        0.0666
     20 S         141.9870  138.4271  159.4000 S.3     1  UNL1       -0.0756
     21 C         141.1392  139.4978  160.0203 C.ar    1  UNL1        0.1933
     22 N         139.7431  139.3259  160.5411 N.ar    1  UNL1       -0.1221
     23 N         139.2797  140.6503  161.0714 N.ar    1  UNL1       -0.1266
     24 C         140.3895  141.6408  160.8783 C.ar    1  UNL1        0.1862
     25 N         141.5387  140.9286  160.2287 N.ar    1  UNL1       -0.2872
     26 C         142.8561  141.5398  159.8533 C.3     1  UNL1        0.1340
     27 C         140.3559  143.0893  161.2666 C.ar    1  UNL1        0.1362
     28 C         139.4670  144.0439  160.5260 C.ar    1  UNL1        0.1211
     29 N         139.4335  145.4924  160.9144 N.ar    1  UNL1       -0.2390
     30 C         140.2888  145.9862  162.0433 C.ar    1  UNL1        0.1195
     31 C         141.1777  145.0315  162.7840 C.ar    1  UNL1        0.1196
     32 N         141.2113  143.5831  162.3956 N.ar    1  UNL1       -0.2375
@<TRIPOS>BOND
     1    15    16    1
     2    16     9    1
     3     9    10   ar
     4    10    11   ar
     5    11    12   ar
     6    12    13   ar
     7    13    14   ar
     8    14     1    1
     9     1     2    1
    10     2     3    1
    11     3     4    1
    12     4     5    1
    13     5     6    1
    14     6    17    1
    15    17    18    1
    16    18    19    1
    17    19    20    1
    18    20    21    1
    19    21    22   ar
    20    22    23   ar
    21    23    24   ar
    22    24    27    1
    23    27    28   ar
    24    28    29   ar
    25    29    30   ar
    26    30    31   ar
    27    31    32   ar
    28    24    25   ar
    29    25    26    1
    30     6     7    1
    31     7     8    1
    32    14     9   ar
    33     8     1    1
    34     8     4    1
    35    25    21   ar
    36    32    27   ar
@<TRIPOS>MOLECULE
*****
 32 36 0 0 0
SMALL
GASTEIGER

@<TRIPOS>ATOM
      1 N         140.0745  143.4788  164.4471 N.pl3   1  UNL1       -0.3054
      2 C         139.0074  144.4704  164.8048 C.3     1  UNL1        0.0910
      3 C         137.6807  143.8783  164.4318 C.3     1  UNL1        0.0245
      4 C         137.9277  142.5208  163.8435 C.3     1  UNL1        0.0372
      5 C         137.2605  141.3159  163.2494 C.3     1  UNL1        0.0738
      6 N         138.3276  140.3244  162.8917 N.3     1  UNL1       -0.2712
      7 C         139.6543  140.9163  163.2647 C.3     1  UNL1        0.0921
      8 C         139.4072  142.2738  163.8529 C.3     1  UNL1        0.0901
      9 C         142.2841  144.7276  163.8923 C.ar    1  UNL1        0.1519
     10 C         143.7595  144.9089  164.0935 C.ar    1  UNL1        0.0382
     11 C         144.5006  144.0228  165.0503 C.ar    1  UNL1        0.0032
     12 C         143.7663  142.9554  165.8062 C.ar    1  UNL1        0.0015
     13 C         142.2909  142.7740  165.6050 C.ar    1  UNL1        0.0176
     14 C         141.5498  143.6601  164.6481 C.ar    1  UNL1        0.0823
     15 C         141.1687  145.1022  161.5760 C.3     1  UNL1        0.2525
     16 O         141.5432  145.6137  162.9354 O.3     1  UNL1       -0.4702
     17 C         138.1067  138.9772  162.2700 C.3     1  UNL1        0.0731
     18 C         139.0348  138.4836  161.2001 C.3     1  UNL1        0.0294
     19 C         140.4767  138.2219  161.5202 C.3     1  UNL1        0.0666
     20 S         140.8418  137.4182  162.7330 S.3     1  UNL1       -0.0756
     21 C         141.5367  138.0767  163.8878 C.ar    1  UNL1        0.1933
     22 N         142.9691  138.5211  163.9177 N.ar    1  UNL1       -0.1221
     23 N         143.2390  139.1254  165.2638 N.ar    1  UNL1       -0.1266
     24 C         141.9734  139.0545  166.0658 C.ar    1  UNL1        0.1862
     25 N         140.9214  138.4063  165.2155 N.ar    1  UNL1       -0.2872
     26 C         139.5030  138.1354  165.6215 C.3     1  UNL1        0.1340
     27 C         141.7917  139.5455  167.4715 C.ar    1  UNL1        0.1362
     28 C         140.6181  140.4132  167.8170 C.ar    1  UNL1        0.1211
     29 N         140.4365  140.9042  169.2228 N.ar    1  UNL1       -0.2390
     30 C         141.4285  140.5274  170.2829 C.ar    1  UNL1        0.1195
     31 C         142.6022  139.6597  169.9373 C.ar    1  UNL1        0.1196
     32 N         142.7839  139.1687  168.5317 N.ar    1  UNL1       -0.2375
@<TRIPOS>BOND
     1    15    16    1
     2    16     9    1
     3     9    10   ar
     4    10    11   ar
     5    11    12   ar
     6    12    13   ar
     7    13    14   ar
     8    14     1    1
     9     1     2    1
    10     2     3    1
    11     3     4    1
    12     4     5    1
    13     5     6    1
    14     6    17    1
    15    17    18    1
    16    18    19    1
    17    19    20    1
    18    20    21    1
    19    21    22   ar
    20    22    23   ar
    21    23    24   ar
    22    24    27    1
    23    27    28   ar
    24    28    29   ar
    25    29    30   ar
    26    30    31   ar
    27    31    32   ar
    28    24    25   ar
    29    25    26    1
    30     6     7    1
    31     7     8    1
    32    14     9   ar
    33     8     1    1
    34     8     4    1
    35    25    21   ar
    36    32    27   ar
@<TRIPOS>MOLECULE
*****
 32 36 0 0 0
SMALL
GASTEIGER

@<TRIPOS>ATOM
      1 N         142.8710  143.2186  162.7945 N.pl3   1  UNL1       -0.3054
      2 C         144.1358  143.6478  163.4771 C.3     1  UNL1        0.0910
      3 C         144.7735  142.4309  164.0791 C.3     1  UNL1        0.0245
      4 C         143.9028  141.2496  163.7686 C.3     1  UNL1        0.0372
      5 C         143.7588  139.7674  163.9487 C.3     1  UNL1        0.0738
      6 N         142.4940  139.3383  163.2661 N.3     1  UNL1       -0.2712
      7 C         141.8563  140.5551  162.6641 C.3     1  UNL1        0.0921
      8 C         142.7270  141.7364  162.9746 C.3     1  UNL1        0.0901
      9 C         140.8756  144.8823  162.8186 C.ar    1  UNL1        0.1519
     10 C         139.9222  145.7780  162.0846 C.ar    1  UNL1        0.0382
     11 C         140.0105  145.9057  160.5927 C.ar    1  UNL1        0.0032
     12 C         141.0524  145.1376  159.8347 C.ar    1  UNL1        0.0015
     13 C         142.0059  144.2419  160.5687 C.ar    1  UNL1        0.0176
     14 C         141.9175  144.1143  162.0606 C.ar    1  UNL1        0.0823
     15 C         139.4835  144.3891  164.9561 C.3     1  UNL1        0.2525
     16 O         140.7872  144.7547  164.3105 O.3     1  UNL1       -0.4702
     17 C         141.9606  137.9380  163.1976 C.3     1  UNL1        0.0731
     18 C         140.5604  137.6914  162.7195 C.3     1  UNL1        0.0294
     19 C         139.4339  137.6118  163.7067 C.3     1  UNL1        0.0666
     20 S         138.8056  138.8691  164.2307 S.3     1  UNL1       -0.0756
     21 C         138.7106  139.1000  165.7098 C.ar    1  UNL1        0.1933
     22 N         137.7214  138.4626  166.6399 N.ar    1  UNL1       -0.1221
     23 N         137.9876  138.9774  168.0234 N.ar    1  UNL1       -0.1266
     24 C         139.1413  139.9330  167.9484 C.ar    1  UNL1        0.1862
     25 N         139.5882  140.0087  166.5185 N.ar    1  UNL1       -0.2872
     26 C         140.7149  140.8462  165.9901 C.3     1  UNL1        0.1340
     27 C         139.7427  140.6814  169.1009 C.ar    1  UNL1        0.1362
     28 C         140.0168  139.9728  170.3941 C.ar    1  UNL1        0.1211
     29 N         140.6182  140.7214  171.5466 N.ar    1  UNL1       -0.2390
     30 C         140.9454  142.1784  171.4057 C.ar    1  UNL1        0.1195
     31 C         140.6714  142.8870  170.1124 C.ar    1  UNL1        0.1196
     32 N         140.0700  142.1386  168.9599 N.ar    1  UNL1       -0.2375
@<TRIPOS>BOND
     1    15    16    1
     2    16     9    1
     3     9    10   ar
     4    10    11   ar
     5    11    12   ar
     6    12    13   ar
     7    13    14   ar
     8    14     1    1
     9     1     2    1
    10     2     3    1
    11     3     4    1
    12     4     5    1
    13     5     6    1
    14     6    17    1
    15    17    18    1
    16    18    19    1
    17    19    20    1
    18    20    21    1
    19    21    22   ar
    20    22    23   ar
    21    23    24   ar
    22    24    27    1
    23    27    28   ar
    24    28    29   ar
    25    29    30   ar
    26    30    31   ar
    27    31    32   ar
    28    24    25   ar
    29    25    26    1
    30     6     7    1
    31     7     8    1
    32    14     9   ar
    33     8     1    1
    34     8     4    1
    35    25    21   ar
    36    32    27   ar
