@<TRIPOS>MOLECULE
*****
 37 40 0 0 0
SMALL
GASTEIGER

@<TRIPOS>ATOM
      1 N         139.9495  140.3662  159.1845 N.am    1  UNL1       -0.2985
      2 C         138.6092  140.4450  159.8533 C.2     1  UNL1        0.2654
      3 O         137.3729  140.0428  159.1052 O.2     1  UNL1       -0.2684
      4 H         140.7610  140.6301  159.6756 H       1  UNL1        0.1498
      5 C         138.5052  140.9259  161.2704 C.ar    1  UNL1        0.1555
      6 C         137.9730  142.2565  161.7130 C.ar    1  UNL1        0.0402
      7 C         138.0541  142.3136  163.2097 C.ar    1  UNL1        0.0622
      8 N         138.6364  141.0182  163.6921 N.ar    1  UNL1       -0.2336
      9 N         138.9152  140.1605  162.4935 N.ar    1  UNL1       -0.1608
     10 C         138.8946  140.6458  165.1221 C.ar    1  UNL1        0.0824
     11 C         139.9211  141.3953  165.9186 C.ar    1  UNL1        0.0191
     12 C         140.1793  141.0228  167.3486 C.ar    1  UNL1        0.0015
     13 C         139.4110  139.9010  167.9818 C.ar    1  UNL1        0.0001
     14 C         138.3845  139.1515  167.1853 C.ar    1  UNL1        0.0015
     15 C         138.1263  139.5239  165.7553 C.ar    1  UNL1        0.0191
     16 C         137.6277  143.4641  164.0726 C.3     1  UNL1        0.0459
     17 C         138.6515  144.4233  164.6035 C.3     1  UNL1        0.0059
     18 C         139.8939  144.7078  163.8126 C.3     1  UNL1        0.0004
     19 C         138.4329  145.0978  165.9253 C.3     1  UNL1        0.0004
     20 C         140.0535  139.8853  157.7675 C.3     1  UNL1        0.1038
     21 N         143.1537  137.4326  156.1809 N.3     1  UNL1       -0.2689
     22 C         143.6274  138.8524  156.0833 C.3     1  UNL1        0.0735
     23 C         142.7512  139.9702  156.5659 C.3     1  UNL1        0.0332
     24 C         141.4014  139.6681  157.1462 C.3     1  UNL1        0.1000
     25 C         140.9277  138.2482  157.2438 C.3     1  UNL1        0.0332
     26 C         141.8038  137.1305  156.7612 C.3     1  UNL1        0.0735
     27 C         141.4069  141.1634  157.2643 C.1     1  UNL1        0.0729
     28 N         141.4125  142.6588  157.3824 N.1     1  UNL1       -0.1959
     29 C         144.0298  136.3148  155.6983 C.3     1  UNL1        0.0992
     30 C         143.0612  132.5064  156.2535 C.ar    1  UNL1        0.1385
     31 C         142.2828  132.2266  155.0022 C.ar    1  UNL1        0.0369
     32 C         142.0868  133.3095  153.9830 C.ar    1  UNL1        0.0028
     33 C         142.6691  134.6722  154.2150 C.ar    1  UNL1       -0.0027
     34 C         143.4475  134.9520  155.4663 C.ar    1  UNL1       -0.0031
     35 C         143.6435  133.8691  156.4855 C.ar    1  UNL1        0.0340
     36 C         144.6370  131.0919  157.7588 C.3     1  UNL1        0.2525
     37 O         143.2573  131.4235  157.2728 O.3     1  UNL1       -0.4714
@<TRIPOS>BOND
     1    36    37    1
     2    37    30    1
     3    30    31   ar
     4    31    32   ar
     5    32    33   ar
     6    33    34   ar
     7    34    29    1
     8    29    21    1
     9    21    22    1
    10    22    23    1
    11    23    24    1
    12    24    27    1
    13    27    28    3
    14    24    20    1
    15    20     1    1
    16     1     2   am
    17     2     3    2
    18     2     5    1
    19     5     6   ar
    20     6     7   ar
    21     7    16    1
    22    16    17    1
    23    17    18    1
    24    17    19    1
    25     7     8   ar
    26     8    10    1
    27    10    11   ar
    28    11    12   ar
    29    12    13   ar
    30    13    14   ar
    31    14    15   ar
    32     8     9   ar
    33    24    25    1
    34    25    26    1
    35    34    35   ar
    36    35    30   ar
    37    26    21    1
    38     9     5   ar
    39    15    10   ar
    40     1     4    1
@<TRIPOS>MOLECULE
*****
 37 40 0 0 0
SMALL
GASTEIGER

@<TRIPOS>ATOM
      1 N         142.5139  137.3511  158.7959 N.am    1  UNL1       -0.2985
      2 C         143.0792  138.4642  159.6275 C.2     1  UNL1        0.2654
      3 O         143.9945  139.4759  159.0040 O.2     1  UNL1       -0.2684
      4 H         141.9132  136.6871  159.2051 H       1  UNL1        0.1498
      5 C         142.7291  138.5656  161.0826 C.ar    1  UNL1        0.1555
      6 C         143.7002  138.5576  162.2257 C.ar    1  UNL1        0.0402
      7 C         142.9178  138.6799  163.4995 C.ar    1  UNL1        0.0622
      8 N         141.4630  138.7635  163.1437 N.ar    1  UNL1       -0.2336
      9 N         141.3464  138.6929  161.6499 N.ar    1  UNL1       -0.1608
     10 C         140.3247  138.8947  164.1118 C.ar    1  UNL1        0.0824
     11 C         139.7753  140.2503  164.4440 C.ar    1  UNL1        0.0191
     12 C         138.6369  140.3815  165.4120 C.ar    1  UNL1        0.0015
     13 C         138.0481  139.1572  166.0476 C.ar    1  UNL1        0.0001
     14 C         138.5975  137.8015  165.7154 C.ar    1  UNL1        0.0015
     15 C         139.7358  137.6703  164.7474 C.ar    1  UNL1        0.0191
     16 C         143.4897  138.7128  164.8859 C.3     1  UNL1        0.0459
     17 C         143.1194  139.8233  165.8238 C.3     1  UNL1        0.0059
     18 C         142.5056  139.5070  167.1553 C.3     1  UNL1        0.0004
     19 C         143.3631  141.2500  165.4301 C.3     1  UNL1        0.0004
     20 C         142.8640  137.2497  157.3409 C.3     1  UNL1        0.1038
     21 N         142.6916  133.6726  155.0346 N.3     1  UNL1       -0.2689
     22 C         141.3353  134.3084  154.9559 C.3     1  UNL1        0.0735
     23 C         141.0694  135.5991  155.6725 C.3     1  UNL1        0.0332
     24 C         142.1598  136.2539  156.4677 C.3     1  UNL1        0.1000
     25 C         143.5161  135.6181  156.5463 C.3     1  UNL1        0.0332
     26 C         143.7820  134.3275  155.8298 C.3     1  UNL1        0.0735
     27 C         141.0481  137.2356  156.6923 C.1     1  UNL1        0.0729
     28 N         139.9363  138.2173  156.9170 N.1     1  UNL1       -0.1959
     29 C         142.9576  132.3819  154.3181 C.3     1  UNL1        0.0992
     30 C         143.6100  129.7665  157.2308 C.ar    1  UNL1        0.1385
     31 C         144.6027  128.8533  156.5746 C.ar    1  UNL1        0.0369
     32 C         145.0471  129.1163  155.1663 C.ar    1  UNL1        0.0028
     33 C         144.4987  130.2925  154.4141 C.ar    1  UNL1       -0.0027
     34 C         143.5060  131.2057  155.0703 C.ar    1  UNL1       -0.0031
     35 C         143.0617  130.9427  156.4786 C.ar    1  UNL1        0.0340
     36 C         143.9636  128.5871  159.5185 C.3     1  UNL1        0.2525
     37 O         143.1657  129.5035  158.6391 O.3     1  UNL1       -0.4714
@<TRIPOS>BOND
     1    36    37    1
     2    37    30    1
     3    30    31   ar
     4    31    32   ar
     5    32    33   ar
     6    33    34   ar
     7    34    29    1
     8    29    21    1
     9    21    22    1
    10    22    23    1
    11    23    24    1
    12    24    27    1
    13    27    28    3
    14    24    20    1
    15    20     1    1
    16     1     2   am
    17     2     3    2
    18     2     5    1
    19     5     6   ar
    20     6     7   ar
    21     7    16    1
    22    16    17    1
    23    17    18    1
    24    17    19    1
    25     7     8   ar
    26     8    10    1
    27    10    11   ar
    28    11    12   ar
    29    12    13   ar
    30    13    14   ar
    31    14    15   ar
    32     8     9   ar
    33    24    25    1
    34    25    26    1
    35    34    35   ar
    36    35    30   ar
    37    26    21    1
    38     9     5   ar
    39    15    10   ar
    40     1     4    1
@<TRIPOS>MOLECULE
*****
 37 40 0 0 0
SMALL
GASTEIGER

@<TRIPOS>ATOM
      1 N         141.5625  138.4875  159.3022 N.am    1  UNL1       -0.2985
      2 C         142.4988  138.5918  160.4695 C.2     1  UNL1        0.2654
      3 O         143.9814  138.6061  160.2427 O.2     1  UNL1       -0.2684
      4 H         140.5894  138.4782  159.4511 H       1  UNL1        0.1498
      5 C         141.9524  138.6818  161.8635 C.ar    1  UNL1        0.1555
      6 C         140.7041  138.0189  162.3657 C.ar    1  UNL1        0.0402
      7 C         140.5385  138.3779  163.8126 C.ar    1  UNL1        0.0622
      8 N         141.6845  139.2627  164.2047 N.ar    1  UNL1       -0.2336
      9 N         142.5583  139.4506  163.0001 N.ar    1  UNL1       -0.1608
     10 C         141.9161  139.8557  165.5630 C.ar    1  UNL1        0.0824
     11 C         141.5620  141.2894  165.8257 C.ar    1  UNL1        0.0191
     12 C         141.7936  141.8824  167.1840 C.ar    1  UNL1        0.0015
     13 C         142.3791  141.0416  168.2794 C.ar    1  UNL1        0.0001
     14 C         142.7332  139.6079  168.0167 C.ar    1  UNL1        0.0015
     15 C         142.5017  139.0149  166.6585 C.ar    1  UNL1        0.0191
     16 C         139.4229  137.9306  164.7100 C.3     1  UNL1        0.0459
     17 C         138.5263  138.9456  165.3550 C.3     1  UNL1        0.0059
     18 C         138.1494  140.1930  164.6122 C.3     1  UNL1        0.0004
     19 C         138.0066  138.7130  166.7427 C.3     1  UNL1        0.0004
     20 C         142.1089  138.3975  157.9081 C.3     1  UNL1        0.1038
     21 N         142.2348  135.1629  155.1394 N.3     1  UNL1       -0.2689
     22 C         140.8198  135.6599  155.1660 C.3     1  UNL1        0.0735
     23 C         140.4449  136.8086  156.0549 C.3     1  UNL1        0.0332
     24 C         141.4850  137.4602  156.9171 C.3     1  UNL1        0.1000
     25 C         142.9000  136.9633  156.8906 C.3     1  UNL1        0.0332
     26 C         143.2750  135.8146  156.0017 C.3     1  UNL1        0.0735
     27 C         140.2867  138.2827  157.2878 C.1     1  UNL1        0.0729
     28 N         139.0883  139.1052  157.6587 N.1     1  UNL1       -0.1959
     29 C         142.6098  134.0143  154.2506 C.3     1  UNL1        0.0992
     30 C         143.5737  130.6173  156.0620 C.ar    1  UNL1        0.1385
     31 C         142.3476  129.7957  155.7947 C.ar    1  UNL1        0.0369
     32 C         141.2089  130.3802  155.0127 C.ar    1  UNL1        0.0028
     33 C         141.2962  131.7864  154.4980 C.ar    1  UNL1       -0.0027
     34 C         142.5224  132.6080  154.7653 C.ar    1  UNL1       -0.0031
     35 C         143.6611  132.0235  155.5473 C.ar    1  UNL1        0.0340
     36 C         144.5673  129.7977  158.3184 C.3     1  UNL1        0.2525
     37 O         144.7125  130.0327  156.8441 O.3     1  UNL1       -0.4714
@<TRIPOS>BOND
     1    36    37    1
     2    37    30    1
     3    30    31   ar
     4    31    32   ar
     5    32    33   ar
     6    33    34   ar
     7    34    29    1
     8    29    21    1
     9    21    22    1
    10    22    23    1
    11    23    24    1
    12    24    27    1
    13    27    28    3
    14    24    20    1
    15    20     1    1
    16     1     2   am
    17     2     3    2
    18     2     5    1
    19     5     6   ar
    20     6     7   ar
    21     7    16    1
    22    16    17    1
    23    17    18    1
    24    17    19    1
    25     7     8   ar
    26     8    10    1
    27    10    11   ar
    28    11    12   ar
    29    12    13   ar
    30    13    14   ar
    31    14    15   ar
    32     8     9   ar
    33    24    25    1
    34    25    26    1
    35    34    35   ar
    36    35    30   ar
    37    26    21    1
    38     9     5   ar
    39    15    10   ar
    40     1     4    1
@<TRIPOS>MOLECULE
*****
 37 40 0 0 0
SMALL
GASTEIGER

@<TRIPOS>ATOM
      1 N         140.6493  140.2853  160.2161 N.am    1  UNL1       -0.2985
      2 C         141.6346  140.7176  161.2613 C.2     1  UNL1        0.2654
      3 O         142.9874  141.2215  160.8539 O.2     1  UNL1       -0.2684
      4 H         139.7614  139.9545  160.4835 H       1  UNL1        0.1498
      5 C         141.2670  140.6460  162.7138 C.ar    1  UNL1        0.1555
      6 C         139.9009  140.3627  163.2646 C.ar    1  UNL1        0.0402
      7 C         139.9906  140.3867  164.7617 C.ar    1  UNL1        0.0622
      8 N         141.4121  140.6850  165.1362 N.ar    1  UNL1       -0.2336
      9 N         142.2010  140.8453  163.8705 N.ar    1  UNL1       -0.1608
     10 C         141.9503  140.8024  166.5314 C.ar    1  UNL1        0.0824
     11 C         142.4407  142.1267  167.0370 C.ar    1  UNL1        0.0191
     12 C         142.9789  142.2442  168.4323 C.ar    1  UNL1        0.0015
     13 C         143.0267  141.0374  169.3217 C.ar    1  UNL1        0.0001
     14 C         142.5363  139.7131  168.8161 C.ar    1  UNL1        0.0015
     15 C         141.9980  139.5955  167.4209 C.ar    1  UNL1        0.0191
     16 C         138.8576  140.1535  165.7167 C.3     1  UNL1        0.0459
     17 C         138.4365  138.7537  166.0534 C.3     1  UNL1        0.0059
     18 C         137.5434  138.5021  167.2320 C.3     1  UNL1        0.0004
     19 C         138.9086  137.6055  165.2114 C.3     1  UNL1        0.0004
     20 C         141.0169  140.3569  158.7636 C.3     1  UNL1        0.1038
     21 N         142.0321  137.2051  156.0840 N.3     1  UNL1       -0.2689
     22 C         140.5366  137.2149  156.1997 C.3     1  UNL1        0.0735
     23 C         139.8592  138.2219  157.0813 C.3     1  UNL1        0.0332
     24 C         140.6772  139.2191  157.8471 C.3     1  UNL1        0.1000
     25 C         142.1727  139.2093  157.7313 C.3     1  UNL1        0.0332
     26 C         142.8501  138.2023  156.8498 C.3     1  UNL1        0.0735
     27 C         139.2997  139.6240  158.2811 C.1     1  UNL1        0.0729
     28 N         137.9221  140.0289  158.7152 N.1     1  UNL1       -0.1959
     29 C         142.7095  136.1982  155.2025 C.3     1  UNL1        0.0992
     30 C         143.7577  132.7214  156.8036 C.ar    1  UNL1        0.1385
     31 C         142.6511  131.8371  156.3105 C.ar    1  UNL1        0.0369
     32 C         141.5639  132.4065  155.4480 C.ar    1  UNL1        0.0028
     33 C         141.5833  133.8601  155.0787 C.ar    1  UNL1       -0.0027
     34 C         142.6900  134.7444  155.5718 C.ar    1  UNL1       -0.0031
     35 C         143.7772  134.1751  156.4343 C.ar    1  UNL1        0.0340
     36 C         144.7914  130.7139  158.0886 C.3     1  UNL1        0.2525
     37 O         144.8449  132.1521  157.6661 O.3     1  UNL1       -0.4714
@<TRIPOS>BOND
     1    36    37    1
     2    37    30    1
     3    30    31   ar
     4    31    32   ar
     5    32    33   ar
     6    33    34   ar
     7    34    29    1
     8    29    21    1
     9    21    22    1
    10    22    23    1
    11    23    24    1
    12    24    27    1
    13    27    28    3
    14    24    20    1
    15    20     1    1
    16     1     2   am
    17     2     3    2
    18     2     5    1
    19     5     6   ar
    20     6     7   ar
    21     7    16    1
    22    16    17    1
    23    17    18    1
    24    17    19    1
    25     7     8   ar
    26     8    10    1
    27    10    11   ar
    28    11    12   ar
    29    12    13   ar
    30    13    14   ar
    31    14    15   ar
    32     8     9   ar
    33    24    25    1
    34    25    26    1
    35    34    35   ar
    36    35    30   ar
    37    26    21    1
    38     9     5   ar
    39    15    10   ar
    40     1     4    1
@<TRIPOS>MOLECULE
*****
 37 40 0 0 0
SMALL
GASTEIGER

@<TRIPOS>ATOM
      1 N         143.0356  136.0752  157.2802 N.am    1  UNL1       -0.2985
      2 C         142.7463  137.5437  157.3787 C.2     1  UNL1        0.2654
      3 O         142.5641  138.3575  156.1320 O.2     1  UNL1       -0.2684
      4 H         143.1552  135.5410  158.0985 H       1  UNL1        0.1498
      5 C         142.6393  138.1984  158.7241 C.ar    1  UNL1        0.1555
      6 C         141.3750  138.4129  159.5022 C.ar    1  UNL1        0.0402
      7 C         141.7321  139.1005  160.7865 C.ar    1  UNL1        0.0622
      8 N         143.2171  139.3110  160.8022 N.ar    1  UNL1       -0.2336
      9 N         143.7778  138.7534  159.5276 N.ar    1  UNL1       -0.1608
     10 C         144.0035  139.9644  161.8999 C.ar    1  UNL1        0.0824
     11 C         144.2558  139.2282  163.1822 C.ar    1  UNL1        0.0191
     12 C         145.0422  139.8815  164.2799 C.ar    1  UNL1        0.0015
     13 C         145.5761  141.2709  164.0952 C.ar    1  UNL1        0.0001
     14 C         145.3238  142.0072  162.8129 C.ar    1  UNL1        0.0015
     15 C         144.5375  141.3539  161.7151 C.ar    1  UNL1        0.0191
     16 C         140.7725  139.5065  161.8657 C.3     1  UNL1        0.0459
     17 C         140.3140  138.5001  162.8790 C.3     1  UNL1        0.0059
     18 C         141.1439  137.2813  163.1543 C.3     1  UNL1        0.0004
     19 C         139.0255  138.7125  163.6171 C.3     1  UNL1        0.0004
     20 C         143.1426  135.4205  155.9348 C.3     1  UNL1        0.1038
     21 N         143.2423  131.1627  155.8581 N.3     1  UNL1       -0.2689
     22 C         141.8641  131.5748  155.4328 C.3     1  UNL1        0.0735
     23 C         141.5063  133.0295  155.3566 C.3     1  UNL1        0.0332
     24 C         142.5266  134.0721  155.7057 C.3     1  UNL1        0.1000
     25 C         143.9047  133.6601  156.1311 C.3     1  UNL1        0.0332
     26 C         144.2626  132.2054  156.2072 C.3     1  UNL1        0.0735
     27 C         141.3624  134.9524  155.3600 C.1     1  UNL1        0.0729
     28 N         140.1981  135.8328  155.0141 N.1     1  UNL1       -0.1959
     29 C         143.6001  129.7080  155.9343 C.3     1  UNL1        0.0992
     30 C         143.6663  128.3428  159.6601 C.ar    1  UNL1        0.1385
     31 C         142.5649  127.3258  159.6090 C.ar    1  UNL1        0.0369
     32 C         141.8086  127.1028  158.3329 C.ar    1  UNL1        0.0028
     33 C         142.1537  127.8969  157.1080 C.ar    1  UNL1       -0.0027
     34 C         143.2550  128.9139  157.1592 C.ar    1  UNL1       -0.0031
     35 C         144.0113  129.1368  158.4353 C.ar    1  UNL1        0.0340
     36 C         145.3134  127.4875  161.4782 C.3     1  UNL1        0.2525
     37 O         144.4226  128.5657  160.9362 O.3     1  UNL1       -0.4714
@<TRIPOS>BOND
     1    36    37    1
     2    37    30    1
     3    30    31   ar
     4    31    32   ar
     5    32    33   ar
     6    33    34   ar
     7    34    29    1
     8    29    21    1
     9    21    22    1
    10    22    23    1
    11    23    24    1
    12    24    27    1
    13    27    28    3
    14    24    20    1
    15    20     1    1
    16     1     2   am
    17     2     3    2
    18     2     5    1
    19     5     6   ar
    20     6     7   ar
    21     7    16    1
    22    16    17    1
    23    17    18    1
    24    17    19    1
    25     7     8   ar
    26     8    10    1
    27    10    11   ar
    28    11    12   ar
    29    12    13   ar
    30    13    14   ar
    31    14    15   ar
    32     8     9   ar
    33    24    25    1
    34    25    26    1
    35    34    35   ar
    36    35    30   ar
    37    26    21    1
    38     9     5   ar
    39    15    10   ar
    40     1     4    1
@<TRIPOS>MOLECULE
*****
 37 40 0 0 0
SMALL
GASTEIGER

@<TRIPOS>ATOM
      1 N         141.6588  144.9795  161.4040 N.am    1  UNL1       -0.2985
      2 C         140.3438  145.2976  160.7561 C.2     1  UNL1        0.2654
      3 O         139.1864  145.7550  161.5933 O.2     1  UNL1       -0.2684
      4 H         142.4184  144.6792  160.8545 H       1  UNL1        0.1498
      5 C         140.1864  145.1582  159.2709 C.ar    1  UNL1        0.1555
      6 C         139.6641  143.9516  158.5490 C.ar    1  UNL1        0.0402
      7 C         139.6785  144.2486  157.0789 C.ar    1  UNL1        0.0622
      8 N         140.2098  145.6388  156.8920 N.ar    1  UNL1       -0.2336
      9 N         140.5237  146.2010  158.2468 N.ar    1  UNL1       -0.1608
     10 C         140.3947  146.3433  155.5807 C.ar    1  UNL1        0.0824
     11 C         141.3108  145.7667  154.5423 C.ar    1  UNL1        0.0191
     12 C         141.4957  146.4712  153.2309 C.ar    1  UNL1        0.0015
     13 C         140.7646  147.7521  152.9581 C.ar    1  UNL1        0.0001
     14 C         139.8486  148.3287  153.9965 C.ar    1  UNL1        0.0015
     15 C         139.6636  147.6243  155.3079 C.ar    1  UNL1        0.0191
     16 C         139.2389  143.3186  155.9871 C.3     1  UNL1        0.0459
     17 C         137.8220  143.3552  155.4960 C.3     1  UNL1        0.0059
     18 C         137.3764  144.4501  154.5725 C.3     1  UNL1        0.0004
     19 C         136.8509  142.2970  155.9283 C.3     1  UNL1        0.0004
     20 C         141.8162  145.1188  162.8893 C.3     1  UNL1        0.1038
     21 N         140.9523  142.1805  165.8497 N.3     1  UNL1       -0.2689
     22 C         142.3357  141.8970  165.3440 C.3     1  UNL1        0.0735
     23 C         142.9383  142.7665  164.2806 C.3     1  UNL1        0.0332
     24 C         142.1576  143.9196  163.7230 C.3     1  UNL1        0.1000
     25 C         140.7742  144.2032  164.2288 C.3     1  UNL1        0.0332
     26 C         140.1715  143.3337  165.2921 C.3     1  UNL1        0.0735
     27 C         143.4224  144.0525  162.9277 C.1     1  UNL1        0.0729
     28 N         144.6873  144.1855  162.1324 N.1     1  UNL1       -0.1959
     29 C         140.3496  141.3111  166.9131 C.3     1  UNL1        0.0992
     30 C         139.3665  138.0161  164.9314 C.ar    1  UNL1        0.1385
     31 C         138.2385  137.5030  165.7765 C.ar    1  UNL1        0.0369
     32 C         137.8142  138.2592  167.0005 C.ar    1  UNL1        0.0028
     33 C         138.5178  139.5285  167.3793 C.ar    1  UNL1       -0.0027
     34 C         139.6458  140.0417  166.5342 C.ar    1  UNL1       -0.0031
     35 C         140.0702  139.2855  165.3103 C.ar    1  UNL1        0.0340
     36 C         141.0869  137.5949  163.0307 C.3     1  UNL1        0.2525
     37 O         139.7908  137.2599  163.7074 O.3     1  UNL1       -0.4714
@<TRIPOS>BOND
     1    36    37    1
     2    37    30    1
     3    30    31   ar
     4    31    32   ar
     5    32    33   ar
     6    33    34   ar
     7    34    29    1
     8    29    21    1
     9    21    22    1
    10    22    23    1
    11    23    24    1
    12    24    27    1
    13    27    28    3
    14    24    20    1
    15    20     1    1
    16     1     2   am
    17     2     3    2
    18     2     5    1
    19     5     6   ar
    20     6     7   ar
    21     7    16    1
    22    16    17    1
    23    17    18    1
    24    17    19    1
    25     7     8   ar
    26     8    10    1
    27    10    11   ar
    28    11    12   ar
    29    12    13   ar
    30    13    14   ar
    31    14    15   ar
    32     8     9   ar
    33    24    25    1
    34    25    26    1
    35    34    35   ar
    36    35    30   ar
    37    26    21    1
    38     9     5   ar
    39    15    10   ar
    40     1     4    1
@<TRIPOS>MOLECULE
*****
 37 40 0 0 0
SMALL
GASTEIGER

@<TRIPOS>ATOM
      1 N         141.1581  138.2365  158.3074 N.am    1  UNL1       -0.2985
      2 C         141.8044  138.7896  159.5429 C.2     1  UNL1        0.2654
      3 O         143.2968  138.9218  159.6136 O.2     1  UNL1       -0.2684
      4 H         140.1786  138.1497  158.2609 H       1  UNL1        0.1498
      5 C         140.9581  139.2105  160.7076 C.ar    1  UNL1        0.1555
      6 C         140.2141  138.2945  161.6335 C.ar    1  UNL1        0.0402
      7 C         139.5034  139.1392  162.6491 C.ar    1  UNL1        0.0622
      8 N         139.8082  140.5772  162.3509 N.ar    1  UNL1       -0.2336
      9 N         140.7073  140.6213  161.1510 N.ar    1  UNL1       -0.1608
     10 C         139.3027  141.7631  163.1179 C.ar    1  UNL1        0.0824
     11 C         139.9861  142.1833  164.3853 C.ar    1  UNL1        0.0191
     12 C         139.4806  143.3691  165.1524 C.ar    1  UNL1        0.0015
     13 C         138.2918  144.1347  164.6519 C.ar    1  UNL1        0.0001
     14 C         137.6084  143.7146  163.3844 C.ar    1  UNL1        0.0015
     15 C         138.1139  142.5287  162.6174 C.ar    1  UNL1        0.0191
     16 C         138.6396  138.6344  163.7667 C.3     1  UNL1        0.0459
     17 C         139.1210  138.7213  165.1847 C.3     1  UNL1        0.0059
     18 C         140.5918  138.7174  165.4789 C.3     1  UNL1        0.0004
     19 C         138.1315  138.8121  166.3084 C.3     1  UNL1        0.0004
     20 C         142.0044  137.8156  157.1426 C.3     1  UNL1        0.1038
     21 N         142.9086  133.9869  155.5092 N.3     1  UNL1       -0.2689
     22 C         141.4880  134.2950  155.1389 C.3     1  UNL1        0.0735
     23 C         140.8637  135.5884  155.5720 C.3     1  UNL1        0.0332
     24 C         141.6600  136.5736  156.3753 C.3     1  UNL1        0.1000
     25 C         143.0805  136.2654  156.7456 C.3     1  UNL1        0.0332
     26 C         143.7048  134.9721  156.3125 C.3     1  UNL1        0.0735
     27 C         140.3591  137.3130  156.2715 C.1     1  UNL1        0.0729
     28 N         139.0581  138.0525  156.1676 N.1     1  UNL1       -0.1959
     29 C         143.5329  132.6936  155.0761 C.3     1  UNL1        0.0992
     30 C         142.9587  129.2300  156.9267 C.ar    1  UNL1        0.1385
     31 C         143.9852  129.3176  158.0170 C.ar    1  UNL1        0.0369
     32 C         144.8609  130.5305  158.1270 C.ar    1  UNL1        0.0028
     33 C         144.7101  131.6558  157.1467 C.ar    1  UNL1       -0.0027
     34 C         143.6837  131.5682  156.0565 C.ar    1  UNL1       -0.0031
     35 C         142.8080  130.3553  155.9465 C.ar    1  UNL1        0.0340
     36 C         142.6970  126.6663  156.5975 C.3     1  UNL1        0.2525
     37 O         142.0830  128.0172  156.8167 O.3     1  UNL1       -0.4714
@<TRIPOS>BOND
     1    36    37    1
     2    37    30    1
     3    30    31   ar
     4    31    32   ar
     5    32    33   ar
     6    33    34   ar
     7    34    29    1
     8    29    21    1
     9    21    22    1
    10    22    23    1
    11    23    24    1
    12    24    27    1
    13    27    28    3
    14    24    20    1
    15    20     1    1
    16     1     2   am
    17     2     3    2
    18     2     5    1
    19     5     6   ar
    20     6     7   ar
    21     7    16    1
    22    16    17    1
    23    17    18    1
    24    17    19    1
    25     7     8   ar
    26     8    10    1
    27    10    11   ar
    28    11    12   ar
    29    12    13   ar
    30    13    14   ar
    31    14    15   ar
    32     8     9   ar
    33    24    25    1
    34    25    26    1
    35    34    35   ar
    36    35    30   ar
    37    26    21    1
    38     9     5   ar
    39    15    10   ar
    40     1     4    1
@<TRIPOS>MOLECULE
*****
 37 40 0 0 0
SMALL
GASTEIGER

@<TRIPOS>ATOM
      1 N         140.6640  138.2957  158.3484 N.am    1  UNL1       -0.2985
      2 C         139.4923  139.1221  158.7888 C.2     1  UNL1        0.2654
      3 O         138.4903  139.6002  157.7801 O.2     1  UNL1       -0.2684
      4 H         141.3217  137.9819  159.0104 H       1  UNL1        0.1498
      5 C         139.3225  139.4705  160.2379 C.ar    1  UNL1        0.1555
      6 C         139.0349  138.5048  161.3490 C.ar    1  UNL1        0.0402
      7 C         138.9452  139.2831  162.6280 C.ar    1  UNL1        0.0622
      8 N         139.1774  140.7299  162.3075 N.ar    1  UNL1       -0.2336
      9 N         139.4106  140.8457  160.8302 N.ar    1  UNL1       -0.1608
     10 C         139.1765  141.8622  163.2914 C.ar    1  UNL1        0.0824
     11 C         137.8992  142.5844  163.6025 C.ar    1  UNL1        0.0191
     12 C         137.8983  143.7167  164.5864 C.ar    1  UNL1        0.0015
     13 C         139.1747  144.1267  165.2590 C.ar    1  UNL1        0.0001
     14 C         140.4521  143.4046  164.9479 C.ar    1  UNL1        0.0015
     15 C         140.4530  142.2722  163.9640 C.ar    1  UNL1        0.0191
     16 C         138.6713  138.7145  163.9889 C.3     1  UNL1        0.0459
     17 C         139.7868  138.5755  164.9820 C.3     1  UNL1        0.0059
     18 C         140.9086  137.6147  164.7203 C.3     1  UNL1        0.0004
     19 C         139.7805  139.3974  166.2368 C.3     1  UNL1        0.0004
     20 C         140.8338  137.9473  156.8993 C.3     1  UNL1        0.1038
     21 N         142.4036  134.5541  154.8582 N.3     1  UNL1       -0.2689
     22 C         143.5624  135.2416  155.5173 C.3     1  UNL1        0.0735
     23 C         143.3362  136.4859  156.3239 C.3     1  UNL1        0.0332
     24 C         141.9512  137.0427  156.4714 C.3     1  UNL1        0.1000
     25 C         140.7924  136.3551  155.8122 C.3     1  UNL1        0.0332
     26 C         141.0185  135.1109  155.0056 C.3     1  UNL1        0.0735
     27 C         142.7219  138.0443  157.2791 C.1     1  UNL1        0.0729
     28 N         143.4927  139.0460  158.0870 N.1     1  UNL1       -0.1959
     29 C         142.6298  133.3098  154.0516 C.3     1  UNL1        0.0992
     30 C         143.6608  130.2250  156.3257 C.ar    1  UNL1        0.1385
     31 C         142.5274  129.2810  156.0537 C.ar    1  UNL1        0.0369
     32 C         141.4280  129.6799  155.1144 C.ar    1  UNL1        0.0028
     33 C         141.4621  131.0228  154.4470 C.ar    1  UNL1       -0.0027
     34 C         142.5956  131.9668  154.7190 C.ar    1  UNL1       -0.0031
     35 C         143.6950  131.5679  155.6583 C.ar    1  UNL1        0.0340
     36 C         144.4269  129.3051  158.6315 C.3     1  UNL1        0.2525
     37 O         144.7602  129.8262  157.2650 O.3     1  UNL1       -0.4714
@<TRIPOS>BOND
     1    36    37    1
     2    37    30    1
     3    30    31   ar
     4    31    32   ar
     5    32    33   ar
     6    33    34   ar
     7    34    29    1
     8    29    21    1
     9    21    22    1
    10    22    23    1
    11    23    24    1
    12    24    27    1
    13    27    28    3
    14    24    20    1
    15    20     1    1
    16     1     2   am
    17     2     3    2
    18     2     5    1
    19     5     6   ar
    20     6     7   ar
    21     7    16    1
    22    16    17    1
    23    17    18    1
    24    17    19    1
    25     7     8   ar
    26     8    10    1
    27    10    11   ar
    28    11    12   ar
    29    12    13   ar
    30    13    14   ar
    31    14    15   ar
    32     8     9   ar
    33    24    25    1
    34    25    26    1
    35    34    35   ar
    36    35    30   ar
    37    26    21    1
    38     9     5   ar
    39    15    10   ar
    40     1     4    1
@<TRIPOS>MOLECULE
*****
 37 40 0 0 0
SMALL
GASTEIGER

@<TRIPOS>ATOM
      1 N         141.5920  139.3564  159.1923 N.am    1  UNL1       -0.2985
      2 C         142.7007  139.2789  160.1997 C.2     1  UNL1        0.2654
      3 O         144.1195  139.1129  159.7422 O.2     1  UNL1       -0.2684
      4 H         140.6608  139.4653  159.4925 H       1  UNL1        0.1498
      5 C         142.3904  139.3675  161.6646 C.ar    1  UNL1        0.1555
      6 C         143.3350  139.8151  162.7404 C.ar    1  UNL1        0.0402
      7 C         142.6095  139.7483  164.0515 C.ar    1  UNL1        0.0622
      8 N         141.2165  139.2594  163.7861 N.ar    1  UNL1       -0.2336
      9 N         141.0811  139.0240  162.3109 N.ar    1  UNL1       -0.1608
     10 C         140.1467  139.0436  164.8152 C.ar    1  UNL1        0.0824
     11 C         139.8264  140.1266  165.8024 C.ar    1  UNL1        0.0191
     12 C         138.7566  139.9109  166.8315 C.ar    1  UNL1        0.0015
     13 C         138.0072  138.6123  166.8734 C.ar    1  UNL1        0.0001
     14 C         138.3275  137.5293  165.8862 C.ar    1  UNL1        0.0015
     15 C         139.3973  137.7449  164.8571 C.ar    1  UNL1        0.0191
     16 C         143.1774  140.1073  165.3927 C.3     1  UNL1        0.0459
     17 C         143.3395  141.5481  165.7772 C.3     1  UNL1        0.0059
     18 C         144.1741  142.4613  164.9292 C.3     1  UNL1        0.0004
     19 C         142.6668  142.0755  167.0099 C.3     1  UNL1        0.0004
     20 C         141.9022  139.2678  157.7274 C.3     1  UNL1        0.1038
     21 N         142.1302  135.8801  155.1552 N.3     1  UNL1       -0.2689
     22 C         140.6738  136.1672  155.3707 C.3     1  UNL1        0.0735
     23 C         140.2566  137.3151  156.2417 C.3     1  UNL1        0.0332
     24 C         141.2957  138.1757  156.8970 C.3     1  UNL1        0.1000
     25 C         142.7521  137.8885  156.6815 C.3     1  UNL1        0.0332
     26 C         143.1694  136.7408  155.8106 C.3     1  UNL1        0.0735
     27 C         140.0500  138.8421  157.4009 C.1     1  UNL1        0.0729
     28 N         138.8042  139.5086  157.9049 N.1     1  UNL1       -0.1959
     29 C         142.5475  134.7323  154.2844 C.3     1  UNL1        0.0992
     30 C         143.4506  131.5818  156.5225 C.ar    1  UNL1        0.1385
     31 C         142.5454  130.5435  155.9287 C.ar    1  UNL1        0.0369
     32 C         141.6410  130.9014  154.7869 C.ar    1  UNL1        0.0028
     33 C         141.6416  132.2977  154.2388 C.ar    1  UNL1       -0.0027
     34 C         142.5468  133.3360  154.8325 C.ar    1  UNL1       -0.0031
     35 C         143.4513  132.9781  155.9743 C.ar    1  UNL1        0.0340
     36 C         145.4717  132.1464  158.0542 C.3     1  UNL1        0.2525
     37 O         144.3551  131.2239  157.6643 O.3     1  UNL1       -0.4714
@<TRIPOS>BOND
     1    36    37    1
     2    37    30    1
     3    30    31   ar
     4    31    32   ar
     5    32    33   ar
     6    33    34   ar
     7    34    29    1
     8    29    21    1
     9    21    22    1
    10    22    23    1
    11    23    24    1
    12    24    27    1
    13    27    28    3
    14    24    20    1
    15    20     1    1
    16     1     2   am
    17     2     3    2
    18     2     5    1
    19     5     6   ar
    20     6     7   ar
    21     7    16    1
    22    16    17    1
    23    17    18    1
    24    17    19    1
    25     7     8   ar
    26     8    10    1
    27    10    11   ar
    28    11    12   ar
    29    12    13   ar
    30    13    14   ar
    31    14    15   ar
    32     8     9   ar
    33    24    25    1
    34    25    26    1
    35    34    35   ar
    36    35    30   ar
    37    26    21    1
    38     9     5   ar
    39    15    10   ar
    40     1     4    1
