@<TRIPOS>MOLECULE
*****
 38 42 0 0 0
SMALL
GASTEIGER

@<TRIPOS>ATOM
      1 C         144.8677  142.5790  160.8861 C.3     1  UNL1        0.0730
      2 C         141.5918  140.5973  167.2444 C.ar    1  UNL1        0.0170
      3 C         142.4998  139.4061  167.1640 C.ar    1  UNL1        0.0011
      4 C         143.4503  139.2639  166.0123 C.ar    1  UNL1       -0.0045
      5 C         143.4927  140.3130  164.9410 C.ar    1  UNL1       -0.0247
      6 C         142.5847  141.5041  165.0214 C.ar    1  UNL1       -0.0246
      7 C         141.6343  141.6464  166.1731 C.ar    1  UNL1       -0.0030
      8 C         142.4667  142.6562  164.0680 C.3     1  UNL1        0.0433
      9 C         143.2277  142.9016  162.7988 C.3     1  UNL1        0.0768
     10 N         144.2944  142.0555  162.1696 N.3     1  UNL1       -0.2720
     11 C         144.8638  140.7550  162.6540 C.3     1  UNL1        0.0768
     12 C         144.5070  139.9795  163.8874 C.3     1  UNL1        0.0433
     13 C         137.5755  139.7747  170.5720 C.3     1  UNL1        0.0540
     14 C         138.7953  140.3614  169.9257 C.ar    1  UNL1        0.0804
     15 C         139.4621  139.8572  168.6802 C.ar    1  UNL1        0.0352
     16 C         140.6414  140.7395  168.3961 C.ar    1  UNL1        0.0791
     17 N         140.7035  141.7890  169.4661 N.ar    1  UNL1       -0.2492
     18 C         141.7269  142.8805  169.5721 C.3     1  UNL1        0.1537
     19 N         139.5626  141.5553  170.4113 N.ar    1  UNL1       -0.1736
     20 C         144.0203  142.6234  159.6491 C.3     1  UNL1        0.0294
     21 C         144.2817  141.6640  158.5261 C.3     1  UNL1        0.0666
     22 S         143.4337  140.4359  158.3761 S.3     1  UNL1       -0.0756
     23 C         143.0683  139.6246  159.5837 C.ar    1  UNL1        0.1932
     24 N         143.7866  138.4031  160.0756 N.ar    1  UNL1       -0.1221
     25 N         143.0828  137.9160  161.3074 N.ar    1  UNL1       -0.1282
     26 C         141.9295  138.8365  161.5768 C.ar    1  UNL1        0.1668
     27 N         141.9206  139.8925  160.5116 N.ar    1  UNL1       -0.2884
     28 C         140.9366  141.0187  160.3947 C.3     1  UNL1        0.1340
     29 C         140.9561  138.7213  162.7122 C.ar    1  UNL1        0.0359
     30 C         139.9811  139.8293  162.9796 C.ar    1  UNL1        0.0030
     31 C         139.0076  139.7141  164.1150 C.ar    1  UNL1        0.0039
     32 C         139.0091  138.4908  164.9830 C.ar    1  UNL1        0.0714
     33 C         139.9842  137.3828  164.7157 C.ar    1  UNL1        0.0039
     34 C         140.9576  137.4980  163.5803 C.ar    1  UNL1        0.0030
     35 C         138.0357  138.3756  166.1184 C.3     1  UNL1        0.4186
     36 F         137.0622  138.2603  167.2538 F       1  UNL1       -0.1659
     37 F         138.3498  136.9139  166.2394 F       1  UNL1       -0.1659
     38 F         137.7216  139.8373  165.9975 F       1  UNL1       -0.1659
@<TRIPOS>BOND
     1    13    14    1
     2    14    15   ar
     3    15    16   ar
     4    16     2    1
     5     2     3   ar
     6     3     4   ar
     7     4     5   ar
     8     5     6   ar
     9     6     7   ar
    10     6     8    1
    11     8     9    1
    12     9    10    1
    13    10     1    1
    14     1    20    1
    15    20    21    1
    16    21    22    1
    17    22    23    1
    18    23    24   ar
    19    24    25   ar
    20    25    26   ar
    21    26    29    1
    22    29    30   ar
    23    30    31   ar
    24    31    32   ar
    25    32    35    1
    26    35    36    1
    27    35    37    1
    28    35    38    1
    29    32    33   ar
    30    33    34   ar
    31    26    27   ar
    32    27    28    1
    33    10    11    1
    34    11    12    1
    35    16    17   ar
    36    17    18    1
    37    17    19   ar
    38    19    14   ar
    39     7     2   ar
    40    27    23   ar
    41    12     5    1
    42    34    29   ar
@<TRIPOS>MOLECULE
*****
 38 42 0 0 0
SMALL
GASTEIGER

@<TRIPOS>ATOM
      1 C         139.9752  145.5655  160.6949 C.3     1  UNL1        0.0730
      2 C         142.2981  142.1316  166.8511 C.ar    1  UNL1        0.0170
      3 C         143.6628  142.5403  166.3815 C.ar    1  UNL1        0.0011
      4 C         143.8165  143.3129  165.1049 C.ar    1  UNL1       -0.0045
      5 C         142.6054  143.6766  164.2980 C.ar    1  UNL1       -0.0247
      6 C         141.2408  143.2679  164.7677 C.ar    1  UNL1       -0.0246
      7 C         141.0871  142.4954  166.0442 C.ar    1  UNL1       -0.0030
      8 C         139.9126  143.5260  164.1201 C.3     1  UNL1        0.0433
      9 C         139.6211  144.2566  162.8428 C.3     1  UNL1        0.0768
     10 N         140.5857  144.9094  161.8978 N.3     1  UNL1       -0.2720
     11 C         142.0801  144.9931  161.9965 C.3     1  UNL1        0.0768
     12 C         142.9790  144.4444  163.0647 C.3     1  UNL1        0.0433
     13 C         142.5990  138.2948  170.4663 C.3     1  UNL1        0.0540
     14 C         142.2828  139.5955  169.7894 C.ar    1  UNL1        0.0804
     15 C         142.6605  139.9749  168.3881 C.ar    1  UNL1        0.0352
     16 C         142.1445  141.3590  168.1277 C.ar    1  UNL1        0.0791
     17 N         141.4479  141.8351  169.3679 N.ar    1  UNL1       -0.2492
     18 C         140.7827  143.1672  169.5493 C.3     1  UNL1        0.1537
     19 N         141.5334  140.7452  170.3949 N.ar    1  UNL1       -0.1736
     20 C         140.6784  145.5076  159.3712 C.3     1  UNL1        0.0294
     21 C         140.2377  144.5217  158.3302 C.3     1  UNL1        0.0666
     22 S         141.1260  143.3698  157.9644 S.3     1  UNL1       -0.0756
     23 C         142.1421  142.8652  158.9457 C.ar    1  UNL1        0.1932
     24 N         143.6132  143.1570  158.9202 N.ar    1  UNL1       -0.1221
     25 N         144.2458  142.4523  160.0835 N.ar    1  UNL1       -0.1282
     26 C         143.1656  141.7250  160.8280 C.ar    1  UNL1        0.1668
     27 N         141.8654  141.9801  160.1248 N.ar    1  UNL1       -0.2884
     28 C         140.5242  141.4443  160.5296 C.3     1  UNL1        0.1340
     29 C         143.3528  140.8893  162.0594 C.ar    1  UNL1        0.0359
     30 C         142.1629  140.2818  162.7415 C.ar    1  UNL1        0.0030
     31 C         142.3500  139.4461  163.9730 C.ar    1  UNL1        0.0039
     32 C         143.7270  139.2177  164.5224 C.ar    1  UNL1        0.0714
     33 C         144.9168  139.8252  163.8403 C.ar    1  UNL1        0.0039
     34 C         144.7297  140.6609  162.6088 C.ar    1  UNL1        0.0030
     35 C         143.9141  138.3820  165.7539 C.3     1  UNL1        0.4186
     36 F         144.1012  137.5462  166.9853 F       1  UNL1       -0.1659
     37 F         142.4452  138.0787  165.7713 F       1  UNL1       -0.1659
     38 F         145.3830  138.6852  165.7365 F       1  UNL1       -0.1659
@<TRIPOS>BOND
     1    13    14    1
     2    14    15   ar
     3    15    16   ar
     4    16     2    1
     5     2     3   ar
     6     3     4   ar
     7     4     5   ar
     8     5     6   ar
     9     6     7   ar
    10     6     8    1
    11     8     9    1
    12     9    10    1
    13    10     1    1
    14     1    20    1
    15    20    21    1
    16    21    22    1
    17    22    23    1
    18    23    24   ar
    19    24    25   ar
    20    25    26   ar
    21    26    29    1
    22    29    30   ar
    23    30    31   ar
    24    31    32   ar
    25    32    35    1
    26    35    36    1
    27    35    37    1
    28    35    38    1
    29    32    33   ar
    30    33    34   ar
    31    26    27   ar
    32    27    28    1
    33    10    11    1
    34    11    12    1
    35    16    17   ar
    36    17    18    1
    37    17    19   ar
    38    19    14   ar
    39     7     2   ar
    40    27    23   ar
    41    12     5    1
    42    34    29   ar
@<TRIPOS>MOLECULE
*****
 38 42 0 0 0
SMALL
GASTEIGER

@<TRIPOS>ATOM
      1 C         144.6421  142.6235  159.6515 C.3     1  UNL1        0.0730
      2 C         142.0865  141.0923  166.4493 C.ar    1  UNL1        0.0170
      3 C         140.8101  141.6929  165.9392 C.ar    1  UNL1        0.0011
      4 C         140.7338  142.2098  164.5331 C.ar    1  UNL1       -0.0045
      5 C         141.9339  142.1260  163.6371 C.ar    1  UNL1       -0.0247
      6 C         143.2102  141.5254  164.1472 C.ar    1  UNL1       -0.0246
      7 C         143.2866  141.0086  165.5532 C.ar    1  UNL1       -0.0030
      8 C         144.5133  141.3464  163.4261 C.3     1  UNL1        0.0433
      9 C         144.8618  141.7239  162.0167 C.3     1  UNL1        0.0768
     10 N         143.9934  142.3734  160.9806 N.3     1  UNL1       -0.2720
     11 C         142.5619  142.8061  161.0977 C.3     1  UNL1        0.0768
     12 C         141.6453  142.6960  162.2800 C.3     1  UNL1        0.0433
     13 C         142.9578  137.9553  170.6062 C.3     1  UNL1        0.0540
     14 C         142.5633  139.1336  169.7661 C.ar    1  UNL1        0.0804
     15 C         142.6658  139.2253  168.2724 C.ar    1  UNL1        0.0352
     16 C         142.1628  140.5755  167.8554 C.ar    1  UNL1        0.0791
     17 N         141.7493  141.3182  169.0913 N.ar    1  UNL1       -0.2492
     18 C         141.1871  142.7080  169.1381 C.3     1  UNL1        0.1537
     19 N         141.9969  140.4270  170.2721 N.ar    1  UNL1       -0.1736
     20 C         143.9071  142.2981  158.3849 C.3     1  UNL1        0.0294
     21 C         144.1455  140.9878  157.6948 C.3     1  UNL1        0.0666
     22 S         143.2465  139.8196  157.9722 S.3     1  UNL1       -0.0756
     23 C         143.0637  139.3312  159.3787 C.ar    1  UNL1        0.1932
     24 N         144.1048  138.6526  160.2186 N.ar    1  UNL1       -0.1221
     25 N         143.4923  138.3377  161.5512 N.ar    1  UNL1       -0.1282
     26 C         142.0726  138.8217  161.5347 C.ar    1  UNL1        0.1668
     27 N         141.8077  139.4357  160.1920 N.ar    1  UNL1       -0.2884
     28 C         140.5139  140.0469  159.7418 C.3     1  UNL1        0.1340
     29 C         141.0903  138.7110  162.6629 C.ar    1  UNL1        0.0359
     30 C         139.6873  139.2120  162.4877 C.ar    1  UNL1        0.0030
     31 C         138.7050  139.1014  163.6158 C.ar    1  UNL1        0.0039
     32 C         139.1256  138.4897  164.9193 C.ar    1  UNL1        0.0714
     33 C         140.5285  137.9887  165.0945 C.ar    1  UNL1        0.0039
     34 C         141.5108  138.0993  163.9663 C.ar    1  UNL1        0.0030
     35 C         138.1432  138.3791  166.0474 C.3     1  UNL1        0.4186
     36 F         137.1609  138.2684  167.1756 F       1  UNL1       -0.1659
     37 F         138.1559  136.8853  165.9120 F       1  UNL1       -0.1659
     38 F         138.1305  139.8729  166.1829 F       1  UNL1       -0.1659
@<TRIPOS>BOND
     1    13    14    1
     2    14    15   ar
     3    15    16   ar
     4    16     2    1
     5     2     3   ar
     6     3     4   ar
     7     4     5   ar
     8     5     6   ar
     9     6     7   ar
    10     6     8    1
    11     8     9    1
    12     9    10    1
    13    10     1    1
    14     1    20    1
    15    20    21    1
    16    21    22    1
    17    22    23    1
    18    23    24   ar
    19    24    25   ar
    20    25    26   ar
    21    26    29    1
    22    29    30   ar
    23    30    31   ar
    24    31    32   ar
    25    32    35    1
    26    35    36    1
    27    35    37    1
    28    35    38    1
    29    32    33   ar
    30    33    34   ar
    31    26    27   ar
    32    27    28    1
    33    10    11    1
    34    11    12    1
    35    16    17   ar
    36    17    18    1
    37    17    19   ar
    38    19    14   ar
    39     7     2   ar
    40    27    23   ar
    41    12     5    1
    42    34    29   ar
@<TRIPOS>MOLECULE
*****
 38 42 0 0 0
SMALL
GASTEIGER

@<TRIPOS>ATOM
      1 C         145.2180  142.6073  160.3408 C.3     1  UNL1        0.0730
      2 C         142.4601  141.7906  167.1828 C.ar    1  UNL1        0.0170
      3 C         142.5158  140.3255  166.8660 C.ar    1  UNL1        0.0011
      4 C         143.0239  139.8654  165.5317 C.ar    1  UNL1       -0.0045
      5 C         143.4764  140.8706  164.5143 C.ar    1  UNL1       -0.0247
      6 C         143.4207  142.3356  164.8312 C.ar    1  UNL1       -0.0246
      7 C         142.9126  142.7956  166.1654 C.ar    1  UNL1       -0.0030
      8 C         143.8196  143.4952  163.9672 C.3     1  UNL1        0.0433
      9 C         144.3726  143.4760  162.5730 C.3     1  UNL1        0.0768
     10 N         144.6634  142.2926  161.6985 N.3     1  UNL1       -0.2720
     11 C         144.4730  140.8360  162.0020 C.3     1  UNL1        0.0768
     12 C         143.9447  140.2031  163.2552 C.3     1  UNL1        0.0433
     13 C         139.2273  143.2517  171.0936 C.3     1  UNL1        0.0540
     14 C         140.4661  142.9221  170.3147 C.ar    1  UNL1        0.0804
     15 C         140.5141  142.4623  168.8876 C.ar    1  UNL1        0.0352
     16 C         141.9520  142.2505  168.5171 C.ar    1  UNL1        0.0791
     17 N         142.7928  142.5793  169.7150 N.ar    1  UNL1       -0.2492
     18 C         144.2891  142.5060  169.7890 C.3     1  UNL1        0.1537
     19 N         141.8744  142.9944  170.8260 N.ar    1  UNL1       -0.1736
     20 C         144.4771  142.1766  159.1096 C.3     1  UNL1        0.0294
     21 C         143.7443  143.1906  158.2820 C.3     1  UNL1        0.0666
     22 S         142.2767  143.4141  158.4959 S.3     1  UNL1       -0.0756
     23 C         141.7119  143.4086  159.8855 C.ar    1  UNL1        0.1932
     24 N         141.5080  144.6108  160.7591 N.ar    1  UNL1       -0.1221
     25 N         140.9219  144.1452  162.0590 N.ar    1  UNL1       -0.1282
     26 C         140.7636  142.6553  161.9887 C.ar    1  UNL1        0.1668
     27 N         141.2518  142.2000  160.6454 N.ar    1  UNL1       -0.2884
     28 C         141.2756  140.7846  160.1493 C.3     1  UNL1        0.1340
     29 C         140.2135  141.7751  163.0717 C.ar    1  UNL1        0.0359
     30 C         139.6937  142.3830  164.3406 C.ar    1  UNL1        0.0030
     31 C         139.1437  141.5028  165.4235 C.ar    1  UNL1        0.0039
     32 C         139.1135  140.0147  165.2376 C.ar    1  UNL1        0.0714
     33 C         139.6333  139.4068  163.9687 C.ar    1  UNL1        0.0039
     34 C         140.1833  140.2870  162.8857 C.ar    1  UNL1        0.0030
     35 C         138.5635  139.1346  166.3205 C.3     1  UNL1        0.4186
     36 F         138.0135  138.2544  167.4035 F       1  UNL1       -0.1659
     37 F         138.0992  138.1523  165.2863 F       1  UNL1       -0.1659
     38 F         139.0277  140.1168  167.3547 F       1  UNL1       -0.1659
@<TRIPOS>BOND
     1    13    14    1
     2    14    15   ar
     3    15    16   ar
     4    16     2    1
     5     2     3   ar
     6     3     4   ar
     7     4     5   ar
     8     5     6   ar
     9     6     7   ar
    10     6     8    1
    11     8     9    1
    12     9    10    1
    13    10     1    1
    14     1    20    1
    15    20    21    1
    16    21    22    1
    17    22    23    1
    18    23    24   ar
    19    24    25   ar
    20    25    26   ar
    21    26    29    1
    22    29    30   ar
    23    30    31   ar
    24    31    32   ar
    25    32    35    1
    26    35    36    1
    27    35    37    1
    28    35    38    1
    29    32    33   ar
    30    33    34   ar
    31    26    27   ar
    32    27    28    1
    33    10    11    1
    34    11    12    1
    35    16    17   ar
    36    17    18    1
    37    17    19   ar
    38    19    14   ar
    39     7     2   ar
    40    27    23   ar
    41    12     5    1
    42    34    29   ar
@<TRIPOS>MOLECULE
*****
 38 42 0 0 0
SMALL
GASTEIGER

@<TRIPOS>ATOM
      1 C         143.0369  139.0397  158.6937 C.3     1  UNL1        0.0730
      2 C         139.5832  140.2075  165.1586 C.ar    1  UNL1        0.0170
      3 C         138.4190  140.5901  164.2935 C.ar    1  UNL1        0.0011
      4 C         138.5469  140.5422  162.7997 C.ar    1  UNL1       -0.0045
      5 C         139.8390  140.1118  162.1710 C.ar    1  UNL1       -0.0247
      6 C         141.0031  139.7293  163.0361 C.ar    1  UNL1       -0.0246
      7 C         140.8753  139.7771  164.5298 C.ar    1  UNL1       -0.0030
      8 C         142.3700  139.2750  162.6174 C.3     1  UNL1        0.0433
      9 C         142.9102  139.0909  161.2301 C.3     1  UNL1        0.0768
     10 N         142.2171  139.3158  159.9191 N.3     1  UNL1       -0.2720
     11 C         140.8125  139.7802  159.6714 C.3     1  UNL1        0.0768
     12 C         139.7541  140.1345  160.6736 C.3     1  UNL1        0.0433
     13 C         140.2275  141.5957  170.2121 C.3     1  UNL1        0.0540
     14 C         139.7513  140.8934  168.9752 C.ar    1  UNL1        0.0804
     15 C         140.1779  141.1969  167.5694 C.ar    1  UNL1        0.0352
     16 C         139.4552  140.2554  166.6523 C.ar    1  UNL1        0.0791
     17 N         138.5820  139.3700  167.4912 N.ar    1  UNL1       -0.2492
     18 C         137.6835  138.2814  166.9836 C.3     1  UNL1        0.1537
     19 N         138.7650  139.7643  168.9267 N.ar    1  UNL1       -0.1736
     20 C         143.2015  140.1011  157.6465 C.3     1  UNL1        0.0294
     21 C         144.4825  140.8767  157.5596 C.3     1  UNL1        0.0666
     22 S         144.5821  142.2334  158.1914 S.3     1  UNL1       -0.0756
     23 C         144.1425  142.4335  159.6115 C.ar    1  UNL1        0.1932
     24 N         144.9847  142.2180  160.8339 N.ar    1  UNL1       -0.1221
     25 N         144.1462  142.5355  162.0364 N.ar    1  UNL1       -0.1282
     26 C         142.7857  142.9473  161.5572 C.ar    1  UNL1        0.1668
     27 N         142.7834  142.8843  160.0585 N.ar    1  UNL1       -0.2884
     28 C         141.6254  143.2141  159.1640 C.3     1  UNL1        0.1340
     29 C         141.6304  143.3513  162.4245 C.ar    1  UNL1        0.0359
     30 C         141.7847  143.3747  163.9163 C.ar    1  UNL1        0.0030
     31 C         140.6294  143.7787  164.7835 C.ar    1  UNL1        0.0039
     32 C         139.3198  144.1591  164.1590 C.ar    1  UNL1        0.0714
     33 C         139.1655  144.1357  162.6671 C.ar    1  UNL1        0.0039
     34 C         140.3208  143.7317  161.7999 C.ar    1  UNL1        0.0030
     35 C         138.1645  144.5631  165.0262 C.3     1  UNL1        0.4186
     36 F         137.0092  144.9670  165.8935 F       1  UNL1       -0.1659
     37 F         139.0736  144.6031  166.2187 F       1  UNL1       -0.1659
     38 F         137.2554  144.5230  163.8338 F       1  UNL1       -0.1659
@<TRIPOS>BOND
     1    13    14    1
     2    14    15   ar
     3    15    16   ar
     4    16     2    1
     5     2     3   ar
     6     3     4   ar
     7     4     5   ar
     8     5     6   ar
     9     6     7   ar
    10     6     8    1
    11     8     9    1
    12     9    10    1
    13    10     1    1
    14     1    20    1
    15    20    21    1
    16    21    22    1
    17    22    23    1
    18    23    24   ar
    19    24    25   ar
    20    25    26   ar
    21    26    29    1
    22    29    30   ar
    23    30    31   ar
    24    31    32   ar
    25    32    35    1
    26    35    36    1
    27    35    37    1
    28    35    38    1
    29    32    33   ar
    30    33    34   ar
    31    26    27   ar
    32    27    28    1
    33    10    11    1
    34    11    12    1
    35    16    17   ar
    36    17    18    1
    37    17    19   ar
    38    19    14   ar
    39     7     2   ar
    40    27    23   ar
    41    12     5    1
    42    34    29   ar
@<TRIPOS>MOLECULE
*****
 38 42 0 0 0
SMALL
GASTEIGER

@<TRIPOS>ATOM
      1 C         144.2235  139.5796  160.4639 C.3     1  UNL1        0.0730
      2 C         142.0110  141.4477  167.2978 C.ar    1  UNL1        0.0170
      3 C         141.7513  139.9783  167.4508 C.ar    1  UNL1        0.0011
      4 C         142.0335  139.0441  166.3115 C.ar    1  UNL1       -0.0045
      5 C         142.5755  139.5795  165.0193 C.ar    1  UNL1       -0.0247
      6 C         142.8352  141.0488  164.8664 C.ar    1  UNL1       -0.0246
      7 C         142.5530  141.9830  166.0056 C.ar    1  UNL1       -0.0030
      8 C         143.3691  141.7851  163.6735 C.3     1  UNL1        0.0433
      9 C         143.7752  141.2336  162.3389 C.3     1  UNL1        0.0768
     10 N         143.7477  139.8099  161.8677 N.3     1  UNL1       -0.2720
     11 C         143.3072  138.5858  162.6146 C.3     1  UNL1        0.0768
     12 C         142.7855  138.4833  164.0172 C.3     1  UNL1        0.0433
     13 C         139.6078  144.9202  170.4674 C.3     1  UNL1        0.0540
     14 C         140.6242  143.9779  169.8940 C.ar    1  UNL1        0.0804
     15 C         140.4782  143.1877  168.6273 C.ar    1  UNL1        0.0352
     16 C         141.7288  142.3817  168.4371 C.ar    1  UNL1        0.0791
     17 N         142.6477  142.6736  169.5862 N.ar    1  UNL1       -0.2492
     18 C         144.0102  142.0828  169.7977 C.3     1  UNL1        0.1537
     19 N         141.9650  143.6601  170.4865 N.ar    1  UNL1       -0.1736
     20 C         143.9858  140.6213  159.4110 C.3     1  UNL1        0.0294
     21 C         142.9802  140.3749  158.3256 C.3     1  UNL1        0.0666
     22 S         141.5592  140.8203  158.5046 S.3     1  UNL1       -0.0756
     23 C         141.0106  141.0418  159.8831 C.ar    1  UNL1        0.1932
     24 N         140.8918  142.3632  160.5829 N.ar    1  UNL1       -0.1221
     25 N         140.2923  142.1189  161.9360 N.ar    1  UNL1       -0.1282
     26 C         140.0406  140.6465  162.0724 C.ar    1  UNL1        0.1668
     27 N         140.4846  139.9807  160.8036 N.ar    1  UNL1       -0.2884
     28 C         140.4147  138.5119  160.5075 C.3     1  UNL1        0.1340
     29 C         139.4489  139.9602  163.2678 C.ar    1  UNL1        0.0359
     30 C         139.3560  138.4635  163.3037 C.ar    1  UNL1        0.0030
     31 C         138.7643  137.7773  164.4991 C.ar    1  UNL1        0.0039
     32 C         138.2654  138.5876  165.6585 C.ar    1  UNL1        0.0714
     33 C         138.3583  140.0843  165.6226 C.ar    1  UNL1        0.0039
     34 C         138.9500  140.7706  164.4272 C.ar    1  UNL1        0.0030
     35 C         137.6737  137.9013  166.8539 C.3     1  UNL1        0.4186
     36 F         137.0820  137.2151  168.0492 F       1  UNL1       -0.1659
     37 F         137.7112  136.5930  166.1213 F       1  UNL1       -0.1659
     38 F         137.6362  139.2097  167.5865 F       1  UNL1       -0.1659
@<TRIPOS>BOND
     1    13    14    1
     2    14    15   ar
     3    15    16   ar
     4    16     2    1
     5     2     3   ar
     6     3     4   ar
     7     4     5   ar
     8     5     6   ar
     9     6     7   ar
    10     6     8    1
    11     8     9    1
    12     9    10    1
    13    10     1    1
    14     1    20    1
    15    20    21    1
    16    21    22    1
    17    22    23    1
    18    23    24   ar
    19    24    25   ar
    20    25    26   ar
    21    26    29    1
    22    29    30   ar
    23    30    31   ar
    24    31    32   ar
    25    32    35    1
    26    35    36    1
    27    35    37    1
    28    35    38    1
    29    32    33   ar
    30    33    34   ar
    31    26    27   ar
    32    27    28    1
    33    10    11    1
    34    11    12    1
    35    16    17   ar
    36    17    18    1
    37    17    19   ar
    38    19    14   ar
    39     7     2   ar
    40    27    23   ar
    41    12     5    1
    42    34    29   ar
@<TRIPOS>MOLECULE
*****
 38 42 0 0 0
SMALL
GASTEIGER

@<TRIPOS>ATOM
      1 C         143.5896  137.9294  160.6528 C.3     1  UNL1        0.0730
      2 C         140.8107  140.5754  167.0060 C.ar    1  UNL1        0.0170
      3 C         139.6443  139.6874  166.6886 C.ar    1  UNL1        0.0011
      4 C         139.6525  138.8559  165.4401 C.ar    1  UNL1       -0.0045
      5 C         140.8273  138.9126  164.5090 C.ar    1  UNL1       -0.0247
      6 C         141.9936  139.8006  164.8264 C.ar    1  UNL1       -0.0246
      7 C         141.9854  140.6320  166.0749 C.ar    1  UNL1       -0.0030
      8 C         143.2549  140.0046  164.0405 C.3     1  UNL1        0.0433
      9 C         143.6612  139.3708  162.7430 C.3     1  UNL1        0.0768
     10 N         142.9066  138.3767  161.9112 N.3     1  UNL1       -0.2720
     11 C         141.5593  137.7707  162.1711 C.3     1  UNL1        0.0768
     12 C         140.6339  138.0092  163.3273 C.3     1  UNL1        0.0433
     13 C         140.3109  144.6572  170.3180 C.3     1  UNL1        0.0540
     14 C         140.5727  143.2830  169.7769 C.ar    1  UNL1        0.0804
     15 C         140.4465  142.8612  168.3428 C.ar    1  UNL1        0.0352
     16 C         140.8024  141.4068  168.2544 C.ar    1  UNL1        0.0791
     17 N         141.1487  140.9296  169.6337 N.ar    1  UNL1       -0.2492
     18 C         141.5640  139.5374  170.0067 C.3     1  UNL1        0.1537
     19 N         141.0067  142.0892  170.5746 N.ar    1  UNL1       -0.1736
     20 C         142.8034  137.2408  159.5767 C.3     1  UNL1        0.0294
     21 C         142.7139  137.8479  158.2080 C.3     1  UNL1        0.0666
     22 S         141.8812  139.0753  157.9850 S.3     1  UNL1       -0.0756
     23 C         140.8475  139.4743  158.9961 C.ar    1  UNL1        0.1932
     24 N         139.5347  138.7884  159.2327 N.ar    1  UNL1       -0.1221
     25 N         138.8211  139.5194  160.3310 N.ar    1  UNL1       -0.1282
     26 C         139.6928  140.6572  160.7732 C.ar    1  UNL1        0.1668
     27 N         140.9453  140.6293  159.9482 N.ar    1  UNL1       -0.2884
     28 C         142.0938  141.5881  160.0563 C.3     1  UNL1        0.1340
     29 C         139.3690  141.6487  161.8511 C.ar    1  UNL1        0.0359
     30 C         138.0477  142.3586  161.8449 C.ar    1  UNL1        0.0030
     31 C         137.7239  143.3502  162.9228 C.ar    1  UNL1        0.0039
     32 C         138.7213  143.6319  164.0070 C.ar    1  UNL1        0.0714
     33 C         140.0427  142.9220  164.0133 C.ar    1  UNL1        0.0039
     34 C         140.3665  141.9305  162.9353 C.ar    1  UNL1        0.0030
     35 C         138.3975  144.6235  165.0850 C.3     1  UNL1        0.4186
     36 F         138.0737  145.6150  166.1629 F       1  UNL1       -0.1659
     37 F         139.7446  145.2585  164.9055 F       1  UNL1       -0.1659
     38 F         137.0505  143.9884  165.2644 F       1  UNL1       -0.1659
@<TRIPOS>BOND
     1    13    14    1
     2    14    15   ar
     3    15    16   ar
     4    16     2    1
     5     2     3   ar
     6     3     4   ar
     7     4     5   ar
     8     5     6   ar
     9     6     7   ar
    10     6     8    1
    11     8     9    1
    12     9    10    1
    13    10     1    1
    14     1    20    1
    15    20    21    1
    16    21    22    1
    17    22    23    1
    18    23    24   ar
    19    24    25   ar
    20    25    26   ar
    21    26    29    1
    22    29    30   ar
    23    30    31   ar
    24    31    32   ar
    25    32    35    1
    26    35    36    1
    27    35    37    1
    28    35    38    1
    29    32    33   ar
    30    33    34   ar
    31    26    27   ar
    32    27    28    1
    33    10    11    1
    34    11    12    1
    35    16    17   ar
    36    17    18    1
    37    17    19   ar
    38    19    14   ar
    39     7     2   ar
    40    27    23   ar
    41    12     5    1
    42    34    29   ar
@<TRIPOS>MOLECULE
*****
 38 42 0 0 0
SMALL
GASTEIGER

@<TRIPOS>ATOM
      1 C         138.7251  141.5908  158.0212 C.3     1  UNL1        0.0730
      2 C         139.2939  139.6013  165.1489 C.ar    1  UNL1        0.0170
      3 C         139.8026  138.3060  164.5890 C.ar    1  UNL1        0.0011
      4 C         139.9122  138.1223  163.1043 C.ar    1  UNL1       -0.0045
      5 C         139.5130  139.2340  162.1796 C.ar    1  UNL1       -0.0247
      6 C         139.0043  140.5291  162.7395 C.ar    1  UNL1       -0.0246
      7 C         138.8947  140.7128  164.2242 C.ar    1  UNL1       -0.0030
      8 C         138.5563  141.7556  162.0011 C.3     1  UNL1        0.0433
      9 C         138.5065  141.9896  160.5202 C.3     1  UNL1        0.0768
     10 N         138.8923  141.0551  159.4123 N.3     1  UNL1       -0.2720
     11 C         139.4232  139.6557  159.5113 C.3     1  UNL1        0.0768
     12 C         139.6994  138.8452  160.7428 C.3     1  UNL1        0.0433
     13 C         140.0636  141.3850  170.0587 C.3     1  UNL1        0.0540
     14 C         139.5382  140.6048  168.8904 C.ar    1  UNL1        0.0804
     15 C         139.9653  140.7624  167.4611 C.ar    1  UNL1        0.0352
     16 C         139.1844  139.7849  166.6336 C.ar    1  UNL1        0.0791
     17 N         138.2747  139.0232  167.5514 N.ar    1  UNL1       -0.2492
     18 C         137.3149  137.9442  167.1457 C.3     1  UNL1        0.1537
     19 N         138.4934  139.5300  168.9462 N.ar    1  UNL1       -0.1736
     20 C         139.8727  142.2728  157.3370 C.3     1  UNL1        0.0294
     21 C         140.2166  143.6912  157.6832 C.3     1  UNL1        0.0666
     22 S         141.4947  143.9980  158.4058 S.3     1  UNL1       -0.0756
     23 C         141.6167  143.7042  159.8717 C.ar    1  UNL1        0.1932
     24 N         141.2283  144.6246  160.9906 N.ar    1  UNL1       -0.1221
     25 N         141.5200  143.9277  162.2865 N.ar    1  UNL1       -0.1282
     26 C         142.0887  142.5766  161.9684 C.ar    1  UNL1        0.1668
     27 N         142.1485  142.4385  160.4759 N.ar    1  UNL1       -0.2884
     28 C         142.6516  141.2443  159.7205 C.3     1  UNL1        0.1340
     29 C         142.5217  141.5448  162.9673 C.ar    1  UNL1        0.0359
     30 C         142.4161  141.8319  164.4358 C.ar    1  UNL1        0.0030
     31 C         142.8491  140.8001  165.4348 C.ar    1  UNL1        0.0039
     32 C         143.3875  139.4812  164.9653 C.ar    1  UNL1        0.0714
     33 C         143.4930  139.1941  163.4969 C.ar    1  UNL1        0.0039
     34 C         143.0601  140.2259  162.4979 C.ar    1  UNL1        0.0030
     35 C         143.8205  138.4494  165.9643 C.3     1  UNL1        0.4186
     36 F         144.2534  137.4176  166.9632 F       1  UNL1       -0.1659
     37 F         142.4213  138.3816  166.5007 F       1  UNL1       -0.1659
     38 F         145.2196  138.5171  165.4279 F       1  UNL1       -0.1659
@<TRIPOS>BOND
     1    13    14    1
     2    14    15   ar
     3    15    16   ar
     4    16     2    1
     5     2     3   ar
     6     3     4   ar
     7     4     5   ar
     8     5     6   ar
     9     6     7   ar
    10     6     8    1
    11     8     9    1
    12     9    10    1
    13    10     1    1
    14     1    20    1
    15    20    21    1
    16    21    22    1
    17    22    23    1
    18    23    24   ar
    19    24    25   ar
    20    25    26   ar
    21    26    29    1
    22    29    30   ar
    23    30    31   ar
    24    31    32   ar
    25    32    35    1
    26    35    36    1
    27    35    37    1
    28    35    38    1
    29    32    33   ar
    30    33    34   ar
    31    26    27   ar
    32    27    28    1
    33    10    11    1
    34    11    12    1
    35    16    17   ar
    36    17    18    1
    37    17    19   ar
    38    19    14   ar
    39     7     2   ar
    40    27    23   ar
    41    12     5    1
    42    34    29   ar
@<TRIPOS>MOLECULE
*****
 38 42 0 0 0
SMALL
GASTEIGER

@<TRIPOS>ATOM
      1 C         141.7459  145.4733  158.7935 C.3     1  UNL1        0.0730
      2 C         140.6229  143.1072  165.7381 C.ar    1  UNL1        0.0170
      3 C         139.4376  144.0256  165.6973 C.ar    1  UNL1        0.0011
      4 C         139.1467  144.8203  164.4588 C.ar    1  UNL1       -0.0045
      5 C         140.0413  144.6965  163.2610 C.ar    1  UNL1       -0.0247
      6 C         141.2265  143.7782  163.3018 C.ar    1  UNL1       -0.0246
      7 C         141.5173  142.9835  164.5403 C.ar    1  UNL1       -0.0030
      8 C         142.2380  143.5084  162.2275 C.3     1  UNL1        0.0433
      9 C         142.3140  144.0905  160.8471 C.3     1  UNL1        0.0768
     10 N         141.3974  145.0859  160.2001 N.3     1  UNL1       -0.2720
     11 C         140.1782  145.7453  160.7736 C.3     1  UNL1        0.0768
     12 C         139.5747  145.5720  162.1359 C.3     1  UNL1        0.0433
     13 C         140.8253  141.5679  170.7848 C.3     1  UNL1        0.0540
     14 C         141.0067  141.6050  169.2964 C.ar    1  UNL1        0.0804
     15 C         140.5110  142.6793  168.3742 C.ar    1  UNL1        0.0352
     16 C         140.9136  142.3126  166.9766 C.ar    1  UNL1        0.0791
     17 N         141.6581  141.0117  167.0349 N.ar    1  UNL1       -0.2492
     18 C         142.2425  140.2770  165.8650 C.3     1  UNL1        0.1537
     19 N         141.7156  140.5744  168.4686 N.ar    1  UNL1       -0.1736
     20 C         142.3114  144.4513  157.8523 C.3     1  UNL1        0.0294
     21 C         141.4007  143.6945  156.9315 C.3     1  UNL1        0.0666
     22 S         140.8041  142.3906  157.3716 S.3     1  UNL1       -0.0756
     23 C         139.9433  142.3359  158.5988 C.ar    1  UNL1        0.1932
     24 N         138.7148  143.1586  158.8515 N.ar    1  UNL1       -0.1221
     25 N         138.1722  142.7801  160.1977 N.ar    1  UNL1       -0.1282
     26 C         139.0654  141.7234  160.7770 C.ar    1  UNL1        0.1668
     27 N         140.1600  141.4489  159.7889 N.ar    1  UNL1       -0.2884
     28 C         141.2755  140.4608  159.9607 C.3     1  UNL1        0.1340
     29 C         138.8940  141.0581  162.1104 C.ar    1  UNL1        0.0359
     30 C         139.6703  139.8161  162.4342 C.ar    1  UNL1        0.0030
     31 C         139.4989  139.1508  163.7676 C.ar    1  UNL1        0.0039
     32 C         138.5514  139.7274  164.7773 C.ar    1  UNL1        0.0714
     33 C         137.7751  140.9694  164.4535 C.ar    1  UNL1        0.0039
     34 C         137.9465  141.6347  163.1201 C.ar    1  UNL1        0.0030
     35 C         138.3800  139.0620  166.1107 C.3     1  UNL1        0.4186
     36 F         138.2087  138.3967  167.4441 F       1  UNL1       -0.1659
     37 F         138.2076  137.7377  165.4277 F       1  UNL1       -0.1659
     38 F         138.5525  140.3864  166.7936 F       1  UNL1       -0.1659
@<TRIPOS>BOND
     1    13    14    1
     2    14    15   ar
     3    15    16   ar
     4    16     2    1
     5     2     3   ar
     6     3     4   ar
     7     4     5   ar
     8     5     6   ar
     9     6     7   ar
    10     6     8    1
    11     8     9    1
    12     9    10    1
    13    10     1    1
    14     1    20    1
    15    20    21    1
    16    21    22    1
    17    22    23    1
    18    23    24   ar
    19    24    25   ar
    20    25    26   ar
    21    26    29    1
    22    29    30   ar
    23    30    31   ar
    24    31    32   ar
    25    32    35    1
    26    35    36    1
    27    35    37    1
    28    35    38    1
    29    32    33   ar
    30    33    34   ar
    31    26    27   ar
    32    27    28    1
    33    10    11    1
    34    11    12    1
    35    16    17   ar
    36    17    18    1
    37    17    19   ar
    38    19    14   ar
    39     7     2   ar
    40    27    23   ar
    41    12     5    1
    42    34    29   ar
