@<TRIPOS>MOLECULE
*****
 39 42 0 0 0
SMALL
GASTEIGER

@<TRIPOS>ATOM
      1 C         142.9394  138.9446  162.5560 C.3     1  UNL1        0.0118
      2 C         141.6553  138.4229  161.9827 C.3     1  UNL1        0.0179
      3 C         141.4396  138.4286  160.4983 C.3     1  UNL1        0.0724
      4 N         142.5082  138.9561  159.5873 N.3     1  UNL1       -0.2689
      5 C         143.7923  139.4778  160.1606 C.3     1  UNL1        0.0724
      6 C         144.0079  139.4720  161.6449 C.3     1  UNL1        0.0179
      7 C         143.1551  138.9388  164.0405 C.3     1  UNL1        0.0851
      8 N         141.7583  139.1273  166.2230 N.am    1  UNL1       -0.3022
      9 C         142.2413  139.7238  164.9341 C.2     1  UNL1        0.2226
     10 O         141.8104  141.1052  164.5391 O.2     1  UNL1       -0.2751
     11 H         142.0411  138.2207  166.4823 H       1  UNL1        0.1497
     12 C         140.8445  139.9123  167.1167 C.3     1  UNL1        0.0950
     13 C         141.4141  140.9063  168.0849 C.2     1  UNL1        0.0083
     14 C         140.6406  142.1438  168.4314 C.2     1  UNL1       -0.0179
     15 C         141.2103  143.1378  169.3997 C.3     1  UNL1        0.1129
     16 C         142.5534  142.8942  170.0215 C.2     1  UNL1        0.2500
     17 O         143.1230  143.8882  170.9897 O.2     1  UNL1       -0.2726
     18 N         143.3268  141.6566  169.6750 N.am    1  UNL1       -0.1779
     19 C         142.7572  140.6626  168.7067 C.2     1  UNL1        0.0856
     20 C         139.3610  139.7033  167.0421 C.3     1  UNL1        0.0242
     21 C         138.7204  139.3331  165.7372 C.3     1  UNL1        0.0020
     22 C         138.8158  137.6224  163.7843 C.3     1  UNL1        0.0000
     23 C         138.7668  137.9136  165.2549 C.3     1  UNL1        0.0001
     24 C         142.2925  138.9618  158.1028 C.3     1  UNL1        0.1007
     25 C         142.8431  137.8494  157.2606 C.ar    1  UNL1        0.0129
     26 C         143.4551  137.9944  155.8989 C.ar    1  UNL1        0.0176
     27 C         143.8686  136.6313  155.4290 C.ar    1  UNL1        0.0799
     28 N         143.5121  135.6437  156.5003 N.ar    1  UNL1       -0.3038
     29 C         142.8782  136.3966  157.6323 C.ar    1  UNL1        0.0772
     30 C         143.7479  134.1633  156.4486 C.ar    1  UNL1        0.0640
     31 C         143.3904  133.3895  155.2145 C.ar    1  UNL1        0.0175
     32 C         143.6262  131.9091  155.1628 C.ar    1  UNL1        0.0053
     33 C         144.2197  131.2025  156.3453 C.ar    1  UNL1        0.0715
     34 C         144.5773  131.9762  157.5795 C.ar    1  UNL1        0.0053
     35 C         144.3415  133.4567  157.6312 C.ar    1  UNL1        0.0175
     36 C         144.4556  129.7220  156.2936 C.3     1  UNL1        0.4186
     37 F         144.6915  128.2416  156.2418 F       1  UNL1       -0.1659
     38 F         143.7320  129.5612  157.5976 F       1  UNL1       -0.1659
     39 F         145.1792  129.8828  154.9895 F       1  UNL1       -0.1659
@<TRIPOS>BOND
     1    22    23    1
     2    23    21    1
     3    21    20    1
     4    20    12    1
     5    12     8    1
     6     8     9   am
     7     9    10    2
     8     9     7    1
     9     7     1    1
    10     1     2    1
    11     2     3    1
    12     3     4    1
    13     4    24    1
    14    24    25    1
    15    25    26   ar
    16    26    27   ar
    17    27    28   ar
    18    28    30    1
    19    30    31   ar
    20    31    32   ar
    21    32    33   ar
    22    33    36    1
    23    36    37    1
    24    36    38    1
    25    36    39    1
    26    33    34   ar
    27    34    35   ar
    28    28    29   ar
    29     4     5    1
    30     5     6    1
    31    12    13    1
    32    13    14    2
    33    14    15    1
    34    15    16    1
    35    16    17    2
    36    16    18    1
    37    18    19    2
    38     6     1    1
    39    19    13    1
    40    29    25   ar
    41    35    30   ar
    42     8    11    1
@<TRIPOS>MOLECULE
*****
 39 42 0 0 0
SMALL
GASTEIGER

@<TRIPOS>ATOM
      1 C         139.6766  143.8831  162.2462 C.3     1  UNL1        0.0118
      2 C         140.7588  144.6906  161.5930 C.3     1  UNL1        0.0179
      3 C         140.9728  144.5984  160.1113 C.3     1  UNL1        0.0724
      4 N         140.1045  143.6986  159.2827 N.3     1  UNL1       -0.2689
      5 C         139.0223  142.8911  159.9358 C.3     1  UNL1        0.0724
      6 C         138.8083  142.9834  161.4176 C.3     1  UNL1        0.0179
      7 C         139.4626  143.9753  163.7280 C.3     1  UNL1        0.0851
      8 N         139.2438  142.0591  165.4688 N.am    1  UNL1       -0.3022
      9 C         140.1005  142.9714  164.6418 C.2     1  UNL1        0.2226
     10 O         141.5952  142.8797  164.7288 O.2     1  UNL1       -0.2751
     11 H         138.2628  142.1193  165.4118 H       1  UNL1        0.1497
     12 C         139.8817  141.0552  166.3826 C.3     1  UNL1        0.0950
     13 C         140.0583  141.3717  167.8382 C.2     1  UNL1        0.0083
     14 C         140.6182  142.6996  168.2544 C.2     1  UNL1       -0.0179
     15 C         140.7948  143.0161  169.7099 C.3     1  UNL1        0.1129
     16 C         140.4115  142.0048  170.7493 C.2     1  UNL1        0.2500
     17 O         140.5881  142.3213  172.2048 O.2     1  UNL1       -0.2726
     18 N         139.8516  140.6769  170.3331 N.am    1  UNL1       -0.1779
     19 C         139.6750  140.3604  168.8775 C.2     1  UNL1        0.0856
     20 C         140.3431  139.7347  165.8409 C.3     1  UNL1        0.0242
     21 C         139.4271  138.9157  164.9805 C.3     1  UNL1        0.0020
     22 C         137.6997  138.1289  166.7544 C.3     1  UNL1        0.0000
     23 C         138.5987  137.8253  165.5927 C.3     1  UNL1        0.0001
     24 C         140.3186  143.6064  157.8008 C.3     1  UNL1        0.1007
     25 C         139.7030  144.6262  156.8892 C.ar    1  UNL1        0.0129
     26 C         138.6089  144.3736  155.8947 C.ar    1  UNL1        0.0176
     27 C         138.3032  145.6690  155.2029 C.ar    1  UNL1        0.0799
     28 N         139.2084  146.7222  155.7699 N.ar    1  UNL1       -0.3038
     29 C         140.0735  146.0777  156.8121 C.ar    1  UNL1        0.0772
     30 C         139.2424  148.1663  155.3657 C.ar    1  UNL1        0.0640
     31 C         138.4471  149.1793  156.1345 C.ar    1  UNL1        0.0175
     32 C         138.4811  150.6234  155.7303 C.ar    1  UNL1        0.0053
     33 C         139.3105  151.0545  154.5573 C.ar    1  UNL1        0.0715
     34 C         140.1059  150.0415  153.7884 C.ar    1  UNL1        0.0053
     35 C         140.0719  148.5974  154.1926 C.ar    1  UNL1        0.0175
     36 C         139.3445  152.4986  154.1530 C.3     1  UNL1        0.4186
     37 F         139.3787  153.9427  153.7488 F       1  UNL1       -0.1659
     38 F         137.8919  152.6307  154.5028 F       1  UNL1       -0.1659
     39 F         140.7972  152.3664  153.8032 F       1  UNL1       -0.1659
@<TRIPOS>BOND
     1    22    23    1
     2    23    21    1
     3    21    20    1
     4    20    12    1
     5    12     8    1
     6     8     9   am
     7     9    10    2
     8     9     7    1
     9     7     1    1
    10     1     2    1
    11     2     3    1
    12     3     4    1
    13     4    24    1
    14    24    25    1
    15    25    26   ar
    16    26    27   ar
    17    27    28   ar
    18    28    30    1
    19    30    31   ar
    20    31    32   ar
    21    32    33   ar
    22    33    36    1
    23    36    37    1
    24    36    38    1
    25    36    39    1
    26    33    34   ar
    27    34    35   ar
    28    28    29   ar
    29     4     5    1
    30     5     6    1
    31    12    13    1
    32    13    14    2
    33    14    15    1
    34    15    16    1
    35    16    17    2
    36    16    18    1
    37    18    19    2
    38     6     1    1
    39    19    13    1
    40    29    25   ar
    41    35    30   ar
    42     8    11    1
@<TRIPOS>MOLECULE
*****
 39 42 0 0 0
SMALL
GASTEIGER

@<TRIPOS>ATOM
      1 C         142.6843  139.0130  162.5771 C.3     1  UNL1        0.0118
      2 C         143.9486  139.3352  161.8370 C.3     1  UNL1        0.0179
      3 C         143.9417  139.4126  160.3390 C.3     1  UNL1        0.0724
      4 N         142.6706  139.1678  159.5812 N.3     1  UNL1       -0.2689
      5 C         141.4064  138.8456  160.3212 C.3     1  UNL1        0.0724
      6 C         141.4132  138.7682  161.8192 C.3     1  UNL1        0.0179
      7 C         142.6911  138.9355  164.0751 C.3     1  UNL1        0.0851
      8 N         141.1945  140.7597  165.1628 N.am    1  UNL1       -0.3022
      9 C         141.4658  139.3176  164.8514 C.2     1  UNL1        0.2226
     10 O         140.5117  138.2576  165.3163 O.2     1  UNL1       -0.2751
     11 H         141.8207  141.4554  164.8576 H       1  UNL1        0.1497
     12 C         139.9693  141.1417  165.9391 C.3     1  UNL1        0.0950
     13 C         140.0641  141.3915  167.4151 C.2     1  UNL1        0.0083
     14 C         139.5483  140.3688  168.3835 C.2     1  UNL1       -0.0179
     15 C         139.6432  140.6186  169.8595 C.3     1  UNL1        0.1129
     16 C         140.2539  141.8911  170.3671 C.2     1  UNL1        0.2500
     17 O         140.3488  142.1410  171.8431 O.2     1  UNL1       -0.2726
     18 N         140.7697  142.9139  169.3987 N.am    1  UNL1       -0.1779
     19 C         140.6748  142.6641  167.9227 C.2     1  UNL1        0.0856
     20 C         138.6491  141.2739  165.2394 C.3     1  UNL1        0.0242
     21 C         138.4753  142.2924  164.1519 C.3     1  UNL1        0.0020
     22 C         138.7690  144.6087  165.2911 C.3     1  UNL1        0.0000
     23 C         137.9427  143.6558  164.4793 C.3     1  UNL1        0.0001
     24 C         142.6639  139.2453  158.0831 C.3     1  UNL1        0.1007
     25 C         143.0081  138.0341  157.2679 C.ar    1  UNL1        0.0129
     26 C         143.7497  138.0306  155.9641 C.ar    1  UNL1        0.0176
     27 C         143.8711  136.6081  155.5038 C.ar    1  UNL1        0.0799
     28 N         143.2046  135.7325  156.5232 N.ar    1  UNL1       -0.3038
     29 C         142.6713  136.6138  157.6135 C.ar    1  UNL1        0.0772
     30 C         143.0914  134.2380  156.4629 C.ar    1  UNL1        0.0640
     31 C         142.0117  133.6003  155.6399 C.ar    1  UNL1        0.0175
     32 C         141.8985  132.1058  155.5795 C.ar    1  UNL1        0.0053
     33 C         142.8649  131.2490  156.3422 C.ar    1  UNL1        0.0715
     34 C         143.9447  131.8867  157.1653 C.ar    1  UNL1        0.0053
     35 C         144.0579  133.3812  157.2256 C.ar    1  UNL1        0.0175
     36 C         142.7517  129.7546  156.2819 C.3     1  UNL1        0.4186
     37 F         142.6385  128.2600  156.2217 F       1  UNL1       -0.1659
     38 F         142.3872  129.8408  154.8294 F       1  UNL1       -0.1659
     39 F         143.1162  129.6683  157.7344 F       1  UNL1       -0.1659
@<TRIPOS>BOND
     1    22    23    1
     2    23    21    1
     3    21    20    1
     4    20    12    1
     5    12     8    1
     6     8     9   am
     7     9    10    2
     8     9     7    1
     9     7     1    1
    10     1     2    1
    11     2     3    1
    12     3     4    1
    13     4    24    1
    14    24    25    1
    15    25    26   ar
    16    26    27   ar
    17    27    28   ar
    18    28    30    1
    19    30    31   ar
    20    31    32   ar
    21    32    33   ar
    22    33    36    1
    23    36    37    1
    24    36    38    1
    25    36    39    1
    26    33    34   ar
    27    34    35   ar
    28    28    29   ar
    29     4     5    1
    30     5     6    1
    31    12    13    1
    32    13    14    2
    33    14    15    1
    34    15    16    1
    35    16    17    2
    36    16    18    1
    37    18    19    2
    38     6     1    1
    39    19    13    1
    40    29    25   ar
    41    35    30   ar
    42     8    11    1
@<TRIPOS>MOLECULE
*****
 39 42 0 0 0
SMALL
GASTEIGER

@<TRIPOS>ATOM
      1 C         140.2100  138.2221  162.4323 C.3     1  UNL1        0.0118
      2 C         139.4233  138.6985  161.2473 C.3     1  UNL1        0.0179
      3 C         140.0695  138.7635  159.8952 C.3     1  UNL1        0.0724
      4 N         141.5023  138.3523  159.7281 N.3     1  UNL1       -0.2689
      5 C         142.2890  137.8760  160.9131 C.3     1  UNL1        0.0724
      6 C         141.6428  137.8109  162.2652 C.3     1  UNL1        0.0179
      7 C         139.5639  138.1570  163.7845 C.3     1  UNL1        0.0851
      8 N         140.6277  140.1669  165.0410 N.am    1  UNL1       -0.3022
      9 C         139.4122  139.4041  164.6041 C.2     1  UNL1        0.2226
     10 O         138.0451  139.8884  164.9868 O.2     1  UNL1       -0.2751
     11 H         141.5250  139.8490  164.7898 H       1  UNL1        0.1497
     12 C         140.4761  141.4140  165.8606 C.3     1  UNL1        0.0950
     13 C         140.4631  141.3302  167.3582 C.2     1  UNL1        0.0083
     14 C         141.0238  142.4549  168.1771 C.2     1  UNL1       -0.0179
     15 C         141.0109  142.3712  169.6747 C.3     1  UNL1        0.1129
     16 C         140.4373  141.1628  170.3534 C.2     1  UNL1        0.2500
     17 O         140.4243  141.0791  171.8510 O.2     1  UNL1       -0.2726
     18 N         139.8766  140.0382  169.5345 N.am    1  UNL1       -0.1779
     19 C         139.8895  140.1219  168.0369 C.2     1  UNL1        0.0856
     20 C         140.3373  142.7447  165.1825 C.3     1  UNL1        0.0242
     21 C         139.1501  143.6143  165.4730 C.3     1  UNL1        0.0020
     22 C         138.1041  142.9595  163.1868 C.3     1  UNL1        0.0000
     23 C         138.0663  143.7708  164.4478 C.3     1  UNL1        0.0001
     24 C         142.1484  138.4174  158.3759 C.3     1  UNL1        0.1007
     25 C         142.0361  137.2553  157.4343 C.ar    1  UNL1        0.0129
     26 C         141.0173  137.0987  156.3446 C.ar    1  UNL1        0.0176
     27 C         141.2745  135.7923  155.6538 C.ar    1  UNL1        0.0799
     28 N         142.4523  135.1414  156.3167 N.ar    1  UNL1       -0.3038
     29 C         142.9230  136.0456  157.4170 C.ar    1  UNL1        0.0772
     30 C         143.0537  133.8186  155.9445 C.ar    1  UNL1        0.0640
     31 C         144.1009  133.1977  156.8206 C.ar    1  UNL1        0.0175
     32 C         144.7023  131.8749  156.4484 C.ar    1  UNL1        0.0053
     33 C         144.2565  131.1731  155.2000 C.ar    1  UNL1        0.0715
     34 C         143.2092  131.7939  154.3238 C.ar    1  UNL1        0.0053
     35 C         142.6078  133.1167  154.6960 C.ar    1  UNL1        0.0175
     36 C         144.8578  129.8503  154.8278 C.3     1  UNL1        0.4186
     37 F         145.4593  128.5275  154.4557 F       1  UNL1       -0.1659
     38 F         144.6253  130.1528  153.3772 F       1  UNL1       -0.1659
     39 F         145.0904  129.5478  156.2786 F       1  UNL1       -0.1659
@<TRIPOS>BOND
     1    22    23    1
     2    23    21    1
     3    21    20    1
     4    20    12    1
     5    12     8    1
     6     8     9   am
     7     9    10    2
     8     9     7    1
     9     7     1    1
    10     1     2    1
    11     2     3    1
    12     3     4    1
    13     4    24    1
    14    24    25    1
    15    25    26   ar
    16    26    27   ar
    17    27    28   ar
    18    28    30    1
    19    30    31   ar
    20    31    32   ar
    21    32    33   ar
    22    33    36    1
    23    36    37    1
    24    36    38    1
    25    36    39    1
    26    33    34   ar
    27    34    35   ar
    28    28    29   ar
    29     4     5    1
    30     5     6    1
    31    12    13    1
    32    13    14    2
    33    14    15    1
    34    15    16    1
    35    16    17    2
    36    16    18    1
    37    18    19    2
    38     6     1    1
    39    19    13    1
    40    29    25   ar
    41    35    30   ar
    42     8    11    1
@<TRIPOS>MOLECULE
*****
 39 42 0 0 0
SMALL
GASTEIGER

@<TRIPOS>ATOM
      1 C         137.9826  140.7291  162.1719 C.3     1  UNL1        0.0118
      2 C         138.2353  139.3235  161.7133 C.3     1  UNL1        0.0179
      3 C         138.6751  139.0623  160.3033 C.3     1  UNL1        0.0724
      4 N         138.8623  140.2067  159.3518 N.3     1  UNL1       -0.2689
      5 C         138.6096  141.6123  159.8104 C.3     1  UNL1        0.0724
      6 C         138.1697  141.8735  161.2204 C.3     1  UNL1        0.0179
      7 C         137.5427  140.9903  163.5820 C.3     1  UNL1        0.0851
      8 N         139.7719  141.0920  164.9125 N.am    1  UNL1       -0.3022
      9 C         138.3924  140.5318  164.7299 C.2     1  UNL1        0.2226
     10 O         137.8628  139.5131  165.6951 O.2     1  UNL1       -0.2751
     11 H         140.1196  141.7606  164.2790 H       1  UNL1        0.1497
     12 C         140.6217  140.6335  166.0604 C.3     1  UNL1        0.0950
     13 C         140.3899  141.1894  167.4342 C.2     1  UNL1        0.0083
     14 C         140.6429  142.6423  167.7078 C.2     1  UNL1       -0.0179
     15 C         140.4111  143.1982  169.0816 C.3     1  UNL1        0.1129
     16 C         139.9262  142.3012  170.1817 C.2     1  UNL1        0.2500
     17 O         139.6944  142.8571  171.5554 O.2     1  UNL1       -0.2726
     18 N         139.6732  140.8483  169.9080 N.am    1  UNL1       -0.1779
     19 C         139.9050  140.2924  168.5342 C.2     1  UNL1        0.0856
     20 C         141.7032  139.6190  165.8345 C.3     1  UNL1        0.0242
     21 C         141.9799  139.1134  164.4496 C.3     1  UNL1        0.0020
     22 C         140.1278  137.3080  164.2056 C.3     1  UNL1        0.0000
     23 C         141.5606  137.7270  164.0596 C.3     1  UNL1        0.0001
     24 C         139.3022  139.9455  157.9417 C.3     1  UNL1        0.1007
     25 C         140.4900  139.0686  157.6768 C.ar    1  UNL1        0.0129
     26 C         141.9274  139.4468  157.8782 C.ar    1  UNL1        0.0176
     27 C         142.7748  138.2716  157.4899 C.ar    1  UNL1        0.0799
     28 N         141.8609  137.1669  157.0486 N.ar    1  UNL1       -0.3038
     29 C         140.4488  137.6595  157.1641 C.ar    1  UNL1        0.0772
     30 C         142.2847  135.8082  156.5750 C.ar    1  UNL1        0.0640
     31 C         141.6281  135.1939  155.3745 C.ar    1  UNL1        0.0175
     32 C         142.0519  133.8352  154.9008 C.ar    1  UNL1        0.0053
     33 C         143.1324  133.0909  155.6277 C.ar    1  UNL1        0.0715
     34 C         143.7892  133.7052  156.8282 C.ar    1  UNL1        0.0053
     35 C         143.3653  135.0639  157.3019 C.ar    1  UNL1        0.0175
     36 C         143.5563  131.7323  155.1540 C.3     1  UNL1        0.4186
     37 F         143.9800  130.3735  154.6803 F       1  UNL1       -0.1659
     38 F         144.9388  131.9801  155.6803 F       1  UNL1       -0.1659
     39 F         142.1736  131.4844  154.6276 F       1  UNL1       -0.1659
@<TRIPOS>BOND
     1    22    23    1
     2    23    21    1
     3    21    20    1
     4    20    12    1
     5    12     8    1
     6     8     9   am
     7     9    10    2
     8     9     7    1
     9     7     1    1
    10     1     2    1
    11     2     3    1
    12     3     4    1
    13     4    24    1
    14    24    25    1
    15    25    26   ar
    16    26    27   ar
    17    27    28   ar
    18    28    30    1
    19    30    31   ar
    20    31    32   ar
    21    32    33   ar
    22    33    36    1
    23    36    37    1
    24    36    38    1
    25    36    39    1
    26    33    34   ar
    27    34    35   ar
    28    28    29   ar
    29     4     5    1
    30     5     6    1
    31    12    13    1
    32    13    14    2
    33    14    15    1
    34    15    16    1
    35    16    17    2
    36    16    18    1
    37    18    19    2
    38     6     1    1
    39    19    13    1
    40    29    25   ar
    41    35    30   ar
    42     8    11    1
@<TRIPOS>MOLECULE
*****
 39 42 0 0 0
SMALL
GASTEIGER

@<TRIPOS>ATOM
      1 C         140.5057  144.9755  159.7113 C.3     1  UNL1        0.0118
      2 C         140.1860  145.8565  160.8824 C.3     1  UNL1        0.0179
      3 C         139.2678  145.3652  161.9620 C.3     1  UNL1        0.0724
      4 N         138.6693  143.9928  161.8704 N.3     1  UNL1       -0.2689
      5 C         138.9890  143.1118  160.6993 C.3     1  UNL1        0.0724
      6 C         139.9072  143.6032  159.6197 C.3     1  UNL1        0.0179
      7 C         141.4240  145.4668  158.6317 C.3     1  UNL1        0.0851
      8 N         139.4680  146.3740  157.1821 N.am    1  UNL1       -0.3022
      9 C         140.8690  145.8493  157.2917 C.2     1  UNL1        0.2226
     10 O         141.7150  145.7071  156.0612 O.2     1  UNL1       -0.2751
     11 H         138.9127  146.4673  157.9897 H       1  UNL1        0.1497
     12 C         138.9131  146.7564  155.8421 C.3     1  UNL1        0.0950
     13 C         139.1786  148.1226  155.2825 C.2     1  UNL1        0.0083
     14 C         140.0479  148.2807  154.0704 C.2     1  UNL1       -0.0179
     15 C         140.3134  149.6468  153.5108 C.3     1  UNL1        0.1129
     16 C         139.7096  150.8549  154.1634 C.2     1  UNL1        0.2500
     17 O         139.9751  152.2211  153.6038 O.2     1  UNL1       -0.2726
     18 N         138.8403  150.6969  155.3755 N.am    1  UNL1       -0.1779
     19 C         138.5748  149.3307  155.9351 C.2     1  UNL1        0.0856
     20 C         138.0926  145.7728  155.0616 C.3     1  UNL1        0.0242
     21 C         138.4869  144.3258  155.0293 C.3     1  UNL1        0.0020
     22 C         137.3028  142.1739  155.8758 C.3     1  UNL1        0.0000
     23 C         138.0951  143.4163  156.1559 C.3     1  UNL1        0.0001
     24 C         137.7510  143.5015  162.9500 C.3     1  UNL1        0.1007
     25 C         138.1780  142.3737  163.8420 C.ar    1  UNL1        0.0129
     26 C         137.6839  140.9592  163.7726 C.ar    1  UNL1        0.0176
     27 C         138.3745  140.1736  164.8477 C.ar    1  UNL1        0.0799
     28 N         139.2956  141.1027  165.5816 N.ar    1  UNL1       -0.3038
     29 C         139.1741  142.4624  164.9600 C.ar    1  UNL1        0.0772
     30 C         140.1824  140.7364  166.7346 C.ar    1  UNL1        0.0640
     31 C         141.6734  140.7881  166.5800 C.ar    1  UNL1        0.0175
     32 C         142.5602  140.4218  167.7329 C.ar    1  UNL1        0.0053
     33 C         141.9559  140.0037  169.0405 C.ar    1  UNL1        0.0715
     34 C         140.4648  139.9520  169.1952 C.ar    1  UNL1        0.0053
     35 C         139.5780  140.3183  168.0423 C.ar    1  UNL1        0.0175
     36 C         142.8427  139.6374  170.1935 C.3     1  UNL1        0.4186
     37 F         143.7295  139.2711  171.3466 F       1  UNL1       -0.1659
     38 F         142.2936  138.2416  170.1724 F       1  UNL1       -0.1659
     39 F         143.3918  141.0331  170.2147 F       1  UNL1       -0.1659
@<TRIPOS>BOND
     1    22    23    1
     2    23    21    1
     3    21    20    1
     4    20    12    1
     5    12     8    1
     6     8     9   am
     7     9    10    2
     8     9     7    1
     9     7     1    1
    10     1     2    1
    11     2     3    1
    12     3     4    1
    13     4    24    1
    14    24    25    1
    15    25    26   ar
    16    26    27   ar
    17    27    28   ar
    18    28    30    1
    19    30    31   ar
    20    31    32   ar
    21    32    33   ar
    22    33    36    1
    23    36    37    1
    24    36    38    1
    25    36    39    1
    26    33    34   ar
    27    34    35   ar
    28    28    29   ar
    29     4     5    1
    30     5     6    1
    31    12    13    1
    32    13    14    2
    33    14    15    1
    34    15    16    1
    35    16    17    2
    36    16    18    1
    37    18    19    2
    38     6     1    1
    39    19    13    1
    40    29    25   ar
    41    35    30   ar
    42     8    11    1
@<TRIPOS>MOLECULE
*****
 39 42 0 0 0
SMALL
GASTEIGER

@<TRIPOS>ATOM
      1 C         138.8821  139.5715  162.0577 C.3     1  UNL1        0.0118
      2 C         140.2965  139.3427  161.6137 C.3     1  UNL1        0.0179
      3 C         140.6468  139.4180  160.1571 C.3     1  UNL1        0.0724
      4 N         139.5827  139.7220  159.1446 N.3     1  UNL1       -0.2689
      5 C         138.1683  139.9507  159.5886 C.3     1  UNL1        0.0724
      6 C         137.8180  139.8755  161.0451 C.3     1  UNL1        0.0179
      7 C         138.5318  139.4962  163.5143 C.3     1  UNL1        0.0851
      8 N         140.2949  140.8151  164.8934 N.am    1  UNL1       -0.3022
      9 C         138.8802  140.6326  164.4292 C.2     1  UNL1        0.2226
     10 O         137.8141  141.5867  164.8798 O.2     1  UNL1       -0.2751
     11 H         140.9947  140.1890  164.5977 H       1  UNL1        0.1497
     12 C         140.6434  141.9516  165.8083 C.3     1  UNL1        0.0950
     13 C         140.5803  141.7638  167.2952 C.2     1  UNL1        0.0083
     14 C         140.5015  142.9582  168.1992 C.2     1  UNL1       -0.0179
     15 C         140.4384  142.7705  169.6861 C.3     1  UNL1        0.1129
     16 C         140.4541  141.3884  170.2689 C.2     1  UNL1        0.2500
     17 O         140.3910  141.2007  171.7558 O.2     1  UNL1       -0.2726
     18 N         140.5329  140.1941  169.3649 N.am    1  UNL1       -0.1779
     19 C         140.5960  140.3818  167.8780 C.2     1  UNL1        0.0856
     20 C         141.0549  143.2757  165.2363 C.3     1  UNL1        0.0242
     21 C         140.3315  143.8368  164.0480 C.3     1  UNL1        0.0020
     22 C         138.5941  144.9653  165.6158 C.3     1  UNL1        0.0000
     23 C         139.1749  144.7712  164.2465 C.3     1  UNL1        0.0001
     24 C         139.9330  139.7973  157.6879 C.3     1  UNL1        0.1007
     25 C         140.1320  138.5376  156.8984 C.ar    1  UNL1        0.0129
     26 C         139.2877  138.0754  155.7480 C.ar    1  UNL1        0.0176
     27 C         139.8442  136.7710  155.2592 C.ar    1  UNL1        0.0799
     28 N         141.0325  136.4270  156.1075 N.ar    1  UNL1       -0.3038
     29 C         141.2104  137.5188  157.1205 C.ar    1  UNL1        0.0772
     30 C         141.8920  135.2057  155.9673 C.ar    1  UNL1        0.0640
     31 C         143.0667  135.0067  156.8785 C.ar    1  UNL1        0.0175
     32 C         143.9262  133.7854  156.7383 C.ar    1  UNL1        0.0053
     33 C         143.6110  132.7632  155.6869 C.ar    1  UNL1        0.0715
     34 C         142.4363  132.9622  154.7756 C.ar    1  UNL1        0.0053
     35 C         141.5768  134.1835  154.9158 C.ar    1  UNL1        0.0175
     36 C         144.4705  131.5419  155.5467 C.3     1  UNL1        0.4186
     37 F         145.3300  130.3205  155.4064 F       1  UNL1       -0.1659
     38 F         145.4150  132.0885  156.5758 F       1  UNL1       -0.1659
     39 F         143.5260  130.9952  154.5175 F       1  UNL1       -0.1659
@<TRIPOS>BOND
     1    22    23    1
     2    23    21    1
     3    21    20    1
     4    20    12    1
     5    12     8    1
     6     8     9   am
     7     9    10    2
     8     9     7    1
     9     7     1    1
    10     1     2    1
    11     2     3    1
    12     3     4    1
    13     4    24    1
    14    24    25    1
    15    25    26   ar
    16    26    27   ar
    17    27    28   ar
    18    28    30    1
    19    30    31   ar
    20    31    32   ar
    21    32    33   ar
    22    33    36    1
    23    36    37    1
    24    36    38    1
    25    36    39    1
    26    33    34   ar
    27    34    35   ar
    28    28    29   ar
    29     4     5    1
    30     5     6    1
    31    12    13    1
    32    13    14    2
    33    14    15    1
    34    15    16    1
    35    16    17    2
    36    16    18    1
    37    18    19    2
    38     6     1    1
    39    19    13    1
    40    29    25   ar
    41    35    30   ar
    42     8    11    1
@<TRIPOS>MOLECULE
*****
 39 42 0 0 0
SMALL
GASTEIGER

@<TRIPOS>ATOM
      1 C         142.2487  138.3347  162.7305 C.3     1  UNL1        0.0118
      2 C         140.9993  138.3291  161.9006 C.3     1  UNL1        0.0179
      3 C         141.0908  138.4261  160.4066 C.3     1  UNL1        0.0724
      4 N         142.4318  138.5288  159.7424 N.3     1  UNL1       -0.2689
      5 C         143.6813  138.5344  160.5723 C.3     1  UNL1        0.0724
      6 C         143.5898  138.4374  162.0663 C.3     1  UNL1        0.0179
      7 C         142.1572  138.2377  164.2246 C.3     1  UNL1        0.0851
      8 N         141.7224  140.6370  165.1215 N.am    1  UNL1       -0.3022
      9 C         142.5698  139.4000  165.0783 C.2     1  UNL1        0.2226
     10 O         143.8298  139.3253  165.8888 O.2     1  UNL1       -0.2751
     11 H         140.8955  140.6860  164.5896 H       1  UNL1        0.1497
     12 C         142.1350  141.7992  165.9753 C.3     1  UNL1        0.0950
     13 C         141.7565  141.8357  167.4263 C.2     1  UNL1        0.0083
     14 C         142.7600  142.2714  168.4524 C.2     1  UNL1       -0.0179
     15 C         142.3815  142.3079  169.9034 C.3     1  UNL1        0.1129
     16 C         140.9995  141.9087  170.3283 C.2     1  UNL1        0.2500
     17 O         140.6210  141.9452  171.7793 O.2     1  UNL1       -0.2726
     18 N         139.9959  141.4730  169.3021 N.am    1  UNL1       -0.1779
     19 C         140.3744  141.4366  167.8511 C.2     1  UNL1        0.0856
     20 C         142.9261  142.9250  165.3780 C.3     1  UNL1        0.0242
     21 C         144.4203  142.8272  165.2890 C.3     1  UNL1        0.0020
     22 C         145.5919  141.1957  163.6412 C.3     1  UNL1        0.0000
     23 C         145.0774  142.5667  163.9660 C.3     1  UNL1        0.0001
     24 C         142.5233  138.6258  158.2483 C.3     1  UNL1        0.1007
     25 C         142.8835  137.4155  157.4388 C.ar    1  UNL1        0.0129
     26 C         143.3711  137.4168  156.0203 C.ar    1  UNL1        0.0176
     27 C         143.6083  135.9935  155.6104 C.ar    1  UNL1        0.0799
     28 N         143.2674  135.1126  156.7757 N.ar    1  UNL1       -0.3038
     29 C         142.8195  135.9915  157.9057 C.ar    1  UNL1        0.0772
     30 C         143.3585  133.6156  156.8057 C.ar    1  UNL1        0.0640
     31 C         142.3742  132.7887  156.0329 C.ar    1  UNL1        0.0175
     32 C         142.4653  131.2918  156.0629 C.ar    1  UNL1        0.0053
     33 C         143.5407  130.6218  156.8656 C.ar    1  UNL1        0.0715
     34 C         144.5250  131.4487  157.6385 C.ar    1  UNL1        0.0053
     35 C         144.4340  132.9456  157.6085 C.ar    1  UNL1        0.0175
     36 C         143.6317  129.1249  156.8956 C.3     1  UNL1        0.4186
     37 F         143.7229  127.6280  156.9256 F       1  UNL1       -0.1659
     38 F         142.1948  129.0291  156.4763 F       1  UNL1       -0.1659
     39 F         145.0688  129.2207  157.3150 F       1  UNL1       -0.1659
@<TRIPOS>BOND
     1    22    23    1
     2    23    21    1
     3    21    20    1
     4    20    12    1
     5    12     8    1
     6     8     9   am
     7     9    10    2
     8     9     7    1
     9     7     1    1
    10     1     2    1
    11     2     3    1
    12     3     4    1
    13     4    24    1
    14    24    25    1
    15    25    26   ar
    16    26    27   ar
    17    27    28   ar
    18    28    30    1
    19    30    31   ar
    20    31    32   ar
    21    32    33   ar
    22    33    36    1
    23    36    37    1
    24    36    38    1
    25    36    39    1
    26    33    34   ar
    27    34    35   ar
    28    28    29   ar
    29     4     5    1
    30     5     6    1
    31    12    13    1
    32    13    14    2
    33    14    15    1
    34    15    16    1
    35    16    17    2
    36    16    18    1
    37    18    19    2
    38     6     1    1
    39    19    13    1
    40    29    25   ar
    41    35    30   ar
    42     8    11    1
@<TRIPOS>MOLECULE
*****
 39 42 0 0 0
SMALL
GASTEIGER

@<TRIPOS>ATOM
      1 C         141.2056  137.8738  163.3149 C.3     1  UNL1        0.0118
      2 C         142.3227  138.0093  162.3231 C.3     1  UNL1        0.0179
      3 C         142.0152  138.2664  160.8777 C.3     1  UNL1        0.0724
      4 N         140.5906  138.3880  160.4241 N.3     1  UNL1       -0.2689
      5 C         139.4736  138.2526  161.4159 C.3     1  UNL1        0.0724
      6 C         139.7810  137.9954  162.8613 C.3     1  UNL1        0.0179
      7 C         141.5131  137.6167  164.7604 C.3     1  UNL1        0.0851
      8 N         141.6385  140.0785  165.5811 N.am    1  UNL1       -0.3022
      9 C         142.1767  138.6784  165.5865 C.2     1  UNL1        0.2226
     10 O         143.3785  138.3400  166.4178 O.2     1  UNL1       -0.2751
     11 H         140.8497  140.3006  165.0355 H       1  UNL1        0.1497
     12 C         142.3021  141.1402  166.4071 C.3     1  UNL1        0.0950
     13 C         141.8475  141.3889  167.8148 C.2     1  UNL1        0.0083
     14 C         140.8615  142.4821  168.1025 C.2     1  UNL1       -0.0179
     15 C         140.4069  142.7308  169.5101 C.3     1  UNL1        0.1129
     16 C         140.9381  141.8862  170.6301 C.2     1  UNL1        0.2500
     17 O         140.4835  142.1348  172.0377 O.2     1  UNL1       -0.2726
     18 N         141.9240  140.7929  170.3424 N.am    1  UNL1       -0.1779
     19 C         142.3787  140.5443  168.9348 C.2     1  UNL1        0.0856
     20 C         143.4204  141.9533  165.8255 C.3     1  UNL1        0.0242
     21 C         143.5644  142.0743  164.3373 C.3     1  UNL1        0.0020
     22 C         145.1840  140.0657  164.0343 C.3     1  UNL1        0.0000
     23 C         144.7342  141.4421  163.6431 C.3     1  UNL1        0.0001
     24 C         140.2832  138.6452  158.9786 C.3     1  UNL1        0.1007
     25 C         140.7396  139.9182  158.3297 C.ar    1  UNL1        0.0129
     26 C         142.1083  140.1846  157.7770 C.ar    1  UNL1        0.0176
     27 C         142.1220  141.5793  157.2252 C.ar    1  UNL1        0.0799
     28 N         140.7617  142.1750  157.4370 N.ar    1  UNL1       -0.3038
     29 C         139.9073  141.1483  158.1195 C.ar    1  UNL1        0.0772
     30 C         140.3314  143.5550  157.0364 C.ar    1  UNL1        0.0640
     31 C         139.6843  143.7812  155.7023 C.ar    1  UNL1        0.0175
     32 C         139.2540  145.1612  155.3018 C.ar    1  UNL1        0.0053
     33 C         139.4708  146.3150  156.2354 C.ar    1  UNL1        0.0715
     34 C         140.1179  146.0888  157.5696 C.ar    1  UNL1        0.0053
     35 C         140.5482  144.7088  157.9701 C.ar    1  UNL1        0.0175
     36 C         139.0405  147.6949  155.8348 C.3     1  UNL1        0.4186
     37 F         138.6101  149.0750  155.4344 F       1  UNL1       -0.1659
     38 F         139.2625  147.3457  154.3931 F       1  UNL1       -0.1659
     39 F         138.8184  148.0442  157.2767 F       1  UNL1       -0.1659
@<TRIPOS>BOND
     1    22    23    1
     2    23    21    1
     3    21    20    1
     4    20    12    1
     5    12     8    1
     6     8     9   am
     7     9    10    2
     8     9     7    1
     9     7     1    1
    10     1     2    1
    11     2     3    1
    12     3     4    1
    13     4    24    1
    14    24    25    1
    15    25    26   ar
    16    26    27   ar
    17    27    28   ar
    18    28    30    1
    19    30    31   ar
    20    31    32   ar
    21    32    33   ar
    22    33    36    1
    23    36    37    1
    24    36    38    1
    25    36    39    1
    26    33    34   ar
    27    34    35   ar
    28    28    29   ar
    29     4     5    1
    30     5     6    1
    31    12    13    1
    32    13    14    2
    33    14    15    1
    34    15    16    1
    35    16    17    2
    36    16    18    1
    37    18    19    2
    38     6     1    1
    39    19    13    1
    40    29    25   ar
    41    35    30   ar
    42     8    11    1
