@<TRIPOS>MOLECULE
*****
 20 21 0 0 0
SMALL
GASTEIGER

@<TRIPOS>ATOM
      1 N         143.5426  143.9708  171.2528 N.pl3   1  UNL1       -0.3262
      2 C         142.6399  143.2463  170.2987 C.ar    1  UNL1        0.2341
      3 N         141.1821  143.5935  170.2351 N.ar    1  UNL1       -0.1128
      4 N         140.2794  142.8691  169.2810 N.ar    1  UNL1       -0.1424
      5 C         140.8346  141.7974  168.3904 C.ar    1  UNL1        0.1348
      6 C         142.2925  141.4502  168.4539 C.ar    1  UNL1        0.1479
      7 N         142.8478  140.3785  167.5633 N.pl3   1  UNL1       -0.3413
      8 N         143.1951  142.1747  169.4080 N.ar    1  UNL1       -0.1967
      9 H         143.1781  144.6742  171.8373 H       1  UNL1        0.1452
     10 H         144.4994  143.7429  171.2945 H       1  UNL1        0.1452
     11 H         142.2554  139.9030  166.9370 H       1  UNL1        0.1438
     12 H         143.8046  140.1506  167.6050 H       1  UNL1        0.1438
     13 C         139.9320  141.0729  167.4362 C.ar    1  UNL1        0.0336
     14 C         139.2816  139.7860  167.8495 C.ar    1  UNL1        0.0025
     15 C         138.3790  139.0616  166.8954 C.ar    1  UNL1        0.0010
     16 C         138.1267  139.6240  165.5279 C.ar    1  UNL1        0.0122
     17 C         138.7771  140.9109  165.1146 C.ar    1  UNL1        0.0682
     18 CL        138.5248  141.4734  163.7471 Cl      1  UNL1       -0.0814
     19 C         139.6797  141.6354  166.0688 C.ar    1  UNL1        0.0698
     20 CL        140.3301  142.9223  165.6554 Cl      1  UNL1       -0.0813
@<TRIPOS>BOND
     1     1     2    1
     2     2     3   ar
     3     3     4   ar
     4     4     5   ar
     5     5    13    1
     6    13    14   ar
     7    14    15   ar
     8    15    16   ar
     9    16    17   ar
    10    17    18    1
    11    17    19   ar
    12    19    20    1
    13     5     6   ar
    14     6     7    1
    15     6     8   ar
    16     8     2   ar
    17    19    13   ar
    18     1     9    1
    19     1    10    1
    20     7    11    1
    21     7    12    1
@<TRIPOS>MOLECULE
*****
 20 21 0 0 0
SMALL
GASTEIGER

@<TRIPOS>ATOM
      1 N         143.4498  143.9964  171.3736 N.pl3   1  UNL1       -0.3262
      2 C         142.6453  143.1866  170.4005 C.ar    1  UNL1        0.2341
      3 N         141.3167  143.6923  169.9219 N.ar    1  UNL1       -0.1128
      4 N         140.5123  142.8825  168.9487 N.ar    1  UNL1       -0.1424
      5 C         141.0364  141.5670  168.4541 C.ar    1  UNL1        0.1348
      6 C         142.3650  141.0613  168.9327 C.ar    1  UNL1        0.1479
      7 N         142.8893  139.7458  168.4381 N.pl3   1  UNL1       -0.3413
      8 N         143.1695  141.8711  169.9058 N.ar    1  UNL1       -0.1967
      9 H         143.1057  144.8599  171.6983 H       1  UNL1        0.1452
     10 H         144.3218  143.6645  171.6877 H       1  UNL1        0.1452
     11 H         142.3613  139.2142  167.7993 H       1  UNL1        0.1438
     12 H         143.7613  139.4139  168.7522 H       1  UNL1        0.1438
     13 C         140.2320  140.7572  167.4809 C.ar    1  UNL1        0.0336
     14 C         140.5454  140.8179  166.0153 C.ar    1  UNL1        0.0025
     15 C         139.7410  140.0080  165.0422 C.ar    1  UNL1        0.0010
     16 C         138.6231  139.1375  165.5346 C.ar    1  UNL1        0.0122
     17 C         138.3097  139.0769  167.0002 C.ar    1  UNL1        0.0682
     18 CL        137.1917  138.2063  167.4927 Cl      1  UNL1       -0.0814
     19 C         139.1141  139.8867  167.9734 C.ar    1  UNL1        0.0698
     20 CL        138.8006  139.8260  169.4391 Cl      1  UNL1       -0.0813
@<TRIPOS>BOND
     1     1     2    1
     2     2     3   ar
     3     3     4   ar
     4     4     5   ar
     5     5    13    1
     6    13    14   ar
     7    14    15   ar
     8    15    16   ar
     9    16    17   ar
    10    17    18    1
    11    17    19   ar
    12    19    20    1
    13     5     6   ar
    14     6     7    1
    15     6     8   ar
    16     8     2   ar
    17    19    13   ar
    18     1     9    1
    19     1    10    1
    20     7    11    1
    21     7    12    1
@<TRIPOS>MOLECULE
*****
 20 21 0 0 0
SMALL
GASTEIGER

@<TRIPOS>ATOM
      1 N         144.6775  142.8686  170.2925 N.pl3   1  UNL1       -0.3262
      2 C         143.7411  142.0756  169.4297 C.ar    1  UNL1        0.2341
      3 N         143.2723  140.7231  169.8777 N.ar    1  UNL1       -0.1128
      4 N         142.3360  139.9301  169.0150 N.ar    1  UNL1       -0.1424
      5 C         141.8684  140.4896  167.7042 C.ar    1  UNL1        0.1348
      6 C         142.3372  141.8422  167.2562 C.ar    1  UNL1        0.1479
      7 N         141.8696  142.4018  165.9453 N.pl3   1  UNL1       -0.3413
      8 N         143.2735  142.6352  168.1190 N.ar    1  UNL1       -0.1967
      9 H         144.9844  142.5013  171.1529 H       1  UNL1        0.1452
     10 H         144.9851  143.7564  169.9985 H       1  UNL1        0.1452
     11 H         141.2550  141.8814  165.3790 H       1  UNL1        0.1438
     12 H         142.1773  143.2896  165.6513 H       1  UNL1        0.1438
     13 C         140.9321  139.6966  166.8414 C.ar    1  UNL1        0.0336
     14 C         139.4494  139.8238  167.0297 C.ar    1  UNL1        0.0025
     15 C         138.5130  139.0308  166.1669 C.ar    1  UNL1        0.0010
     16 C         139.0593  138.1106  165.1158 C.ar    1  UNL1        0.0122
     17 C         140.5420  137.9834  164.9276 C.ar    1  UNL1        0.0682
     18 CL        141.0884  137.0632  163.8765 Cl      1  UNL1       -0.0814
     19 C         141.4784  138.7764  165.7903 C.ar    1  UNL1        0.0698
     20 CL        142.9611  138.6492  165.6020 Cl      1  UNL1       -0.0813
@<TRIPOS>BOND
     1     1     2    1
     2     2     3   ar
     3     3     4   ar
     4     4     5   ar
     5     5    13    1
     6    13    14   ar
     7    14    15   ar
     8    15    16   ar
     9    16    17   ar
    10    17    18    1
    11    17    19   ar
    12    19    20    1
    13     5     6   ar
    14     6     7    1
    15     6     8   ar
    16     8     2   ar
    17    19    13   ar
    18     1     9    1
    19     1    10    1
    20     7    11    1
    21     7    12    1
@<TRIPOS>MOLECULE
*****
 20 21 0 0 0
SMALL
GASTEIGER

@<TRIPOS>ATOM
      1 N         139.2590  143.2200  171.3001 N.pl3   1  UNL1       -0.3262
      2 C         139.6329  142.3100  170.1678 C.ar    1  UNL1        0.2341
      3 N         139.3726  140.8365  170.2724 N.ar    1  UNL1       -0.1128
      4 N         139.7465  139.9266  169.1401 N.ar    1  UNL1       -0.1424
      5 C         140.3808  140.4901  167.9031 C.ar    1  UNL1        0.1348
      6 C         140.6411  141.9636  167.7985 C.ar    1  UNL1        0.1479
      7 N         141.2754  142.5272  166.5615 N.pl3   1  UNL1       -0.3413
      8 N         140.2672  142.8736  168.9308 N.ar    1  UNL1       -0.1967
      9 H         138.8428  142.8501  172.1120 H       1  UNL1        0.1452
     10 H         139.4299  144.1871  171.2314 H       1  UNL1        0.1452
     11 H         141.5208  141.9300  165.8183 H       1  UNL1        0.1438
     12 H         141.4462  143.4944  166.4928 H       1  UNL1        0.1438
     13 C         140.7547  139.5802  166.7708 C.ar    1  UNL1        0.0336
     14 C         142.1852  139.1730  166.5768 C.ar    1  UNL1        0.0025
     15 C         142.5591  138.2630  165.4445 C.ar    1  UNL1        0.0010
     16 C         141.5025  137.7603  164.5061 C.ar    1  UNL1        0.0122
     17 C         140.0719  138.1674  164.7000 C.ar    1  UNL1        0.0682
     18 CL        139.0152  137.6646  163.7616 Cl      1  UNL1       -0.0814
     19 C         139.6980  139.0774  165.8324 C.ar    1  UNL1        0.0698
     20 CL        138.2674  139.4845  166.0263 Cl      1  UNL1       -0.0813
@<TRIPOS>BOND
     1     1     2    1
     2     2     3   ar
     3     3     4   ar
     4     4     5   ar
     5     5    13    1
     6    13    14   ar
     7    14    15   ar
     8    15    16   ar
     9    16    17   ar
    10    17    18    1
    11    17    19   ar
    12    19    20    1
    13     5     6   ar
    14     6     7    1
    15     6     8   ar
    16     8     2   ar
    17    19    13   ar
    18     1     9    1
    19     1    10    1
    20     7    11    1
    21     7    12    1
@<TRIPOS>MOLECULE
*****
 20 21 0 0 0
SMALL
GASTEIGER

@<TRIPOS>ATOM
      1 N         139.9530  139.5131  171.4516 N.pl3   1  UNL1       -0.3262
      2 C         140.6808  139.6286  170.1451 C.ar    1  UNL1        0.2341
      3 N         142.1662  139.4265  170.0937 N.ar    1  UNL1       -0.1128
      4 N         142.8941  139.5420  168.7872 N.ar    1  UNL1       -0.1424
      5 C         142.1365  139.8596  167.5322 C.ar    1  UNL1        0.1348
      6 C         140.6511  140.0618  167.5836 C.ar    1  UNL1        0.1479
      7 N         139.8935  140.3794  166.3285 N.pl3   1  UNL1       -0.3413
      8 N         139.9233  139.9463  168.8901 N.ar    1  UNL1       -0.1967
      9 H         140.4502  139.3046  172.2753 H       1  UNL1        0.1452
     10 H         138.9781  139.6458  171.4854 H       1  UNL1        0.1452
     11 H         140.3712  140.4552  165.4710 H       1  UNL1        0.1438
     12 H         138.9186  140.5121  166.3623 H       1  UNL1        0.1438
     13 C         142.8644  139.9751  166.2257 C.ar    1  UNL1        0.0336
     14 C         143.0083  138.7742  165.3386 C.ar    1  UNL1        0.0025
     15 C         143.7362  138.8897  164.0321 C.ar    1  UNL1        0.0010
     16 C         144.3201  140.2061  163.6127 C.ar    1  UNL1        0.0122
     17 C         144.1761  141.4071  164.4998 C.ar    1  UNL1        0.0682
     18 CL        144.7600  142.7237  164.0804 Cl      1  UNL1       -0.0814
     19 C         143.4483  141.2916  165.8063 C.ar    1  UNL1        0.0698
     20 CL        143.3043  142.4926  166.6933 Cl      1  UNL1       -0.0813
@<TRIPOS>BOND
     1     1     2    1
     2     2     3   ar
     3     3     4   ar
     4     4     5   ar
     5     5    13    1
     6    13    14   ar
     7    14    15   ar
     8    15    16   ar
     9    16    17   ar
    10    17    18    1
    11    17    19   ar
    12    19    20    1
    13     5     6   ar
    14     6     7    1
    15     6     8   ar
    16     8     2   ar
    17    19    13   ar
    18     1     9    1
    19     1    10    1
    20     7    11    1
    21     7    12    1
@<TRIPOS>MOLECULE
*****
 20 21 0 0 0
SMALL
GASTEIGER

@<TRIPOS>ATOM
      1 N         142.9887  138.3042  170.5650 N.pl3   1  UNL1       -0.3262
      2 C         142.2449  139.1240  169.5529 C.ar    1  UNL1        0.2341
      3 N         140.8287  139.5405  169.8195 N.ar    1  UNL1       -0.1128
      4 N         140.0849  140.3603  168.8073 N.ar    1  UNL1       -0.1424
      5 C         140.7571  140.7637  167.5285 C.ar    1  UNL1        0.1348
      6 C         142.1732  140.3473  167.2619 C.ar    1  UNL1        0.1479
      7 N         142.8456  140.7507  165.9831 N.pl3   1  UNL1       -0.3413
      8 N         142.9171  139.5275  168.2741 N.ar    1  UNL1       -0.1967
      9 H         142.5475  138.0394  171.4044 H       1  UNL1        0.1452
     10 H         143.9182  138.0309  170.3901 H       1  UNL1        0.1452
     11 H         142.3574  141.2888  165.3188 H       1  UNL1        0.1438
     12 H         143.7750  140.4774  165.8081 H       1  UNL1        0.1438
     13 C         140.0132  141.5836  166.5163 C.ar    1  UNL1        0.0336
     14 C         140.1800  143.0740  166.4895 C.ar    1  UNL1        0.0025
     15 C         139.4361  143.8938  165.4773 C.ar    1  UNL1        0.0010
     16 C         138.5255  143.2233  164.4920 C.ar    1  UNL1        0.0122
     17 C         138.3587  141.7328  164.5188 C.ar    1  UNL1        0.0682
     18 CL        137.4480  141.0622  163.5334 Cl      1  UNL1       -0.0814
     19 C         139.1026  140.9130  165.5310 C.ar    1  UNL1        0.0698
     20 CL        138.9357  139.4225  165.5578 Cl      1  UNL1       -0.0813
@<TRIPOS>BOND
     1     1     2    1
     2     2     3   ar
     3     3     4   ar
     4     4     5   ar
     5     5    13    1
     6    13    14   ar
     7    14    15   ar
     8    15    16   ar
     9    16    17   ar
    10    17    18    1
    11    17    19   ar
    12    19    20    1
    13     5     6   ar
    14     6     7    1
    15     6     8   ar
    16     8     2   ar
    17    19    13   ar
    18     1     9    1
    19     1    10    1
    20     7    11    1
    21     7    12    1
@<TRIPOS>MOLECULE
*****
 20 21 0 0 0
SMALL
GASTEIGER

@<TRIPOS>ATOM
      1 N         140.4070  140.5361  171.2479 N.pl3   1  UNL1       -0.3262
      2 C         140.0711  140.2136  169.8220 C.ar    1  UNL1        0.2341
      3 N         138.7125  139.6819  169.4734 N.ar    1  UNL1       -0.1128
      4 N         138.3766  139.3593  168.0475 N.ar    1  UNL1       -0.1424
      5 C         139.3992  139.5684  166.9703 C.ar    1  UNL1        0.1348
      6 C         140.7578  140.1001  167.3189 C.ar    1  UNL1        0.1479
      7 N         141.7805  140.3092  166.2417 N.pl3   1  UNL1       -0.3413
      8 N         141.0937  140.4227  168.7448 N.ar    1  UNL1       -0.1967
      9 H         139.7358  140.3989  171.9549 H       1  UNL1        0.1452
     10 H         141.2987  140.8851  171.4767 H       1  UNL1        0.1452
     11 H         141.5601  140.0975  165.3058 H       1  UNL1        0.1438
     12 H         142.6722  140.6582  166.4705 H       1  UNL1        0.1438
     13 C         139.0633  139.2459  165.5444 C.ar    1  UNL1        0.0336
     14 C         139.2483  137.8499  165.0276 C.ar    1  UNL1        0.0025
     15 C         138.9124  137.5274  163.6018 C.ar    1  UNL1        0.0010
     16 C         138.3915  138.6007  162.6927 C.ar    1  UNL1        0.0122
     17 C         138.2065  139.9967  163.2094 C.ar    1  UNL1        0.0682
     18 CL        137.6856  141.0701  162.3003 Cl      1  UNL1       -0.0814
     19 C         138.5424  140.3192  164.6353 C.ar    1  UNL1        0.0698
     20 CL        138.3574  141.7153  165.1521 Cl      1  UNL1       -0.0813
@<TRIPOS>BOND
     1     1     2    1
     2     2     3   ar
     3     3     4   ar
     4     4     5   ar
     5     5    13    1
     6    13    14   ar
     7    14    15   ar
     8    15    16   ar
     9    16    17   ar
    10    17    18    1
    11    17    19   ar
    12    19    20    1
    13     5     6   ar
    14     6     7    1
    15     6     8   ar
    16     8     2   ar
    17    19    13   ar
    18     1     9    1
    19     1    10    1
    20     7    11    1
    21     7    12    1
@<TRIPOS>MOLECULE
*****
 20 21 0 0 0
SMALL
GASTEIGER

@<TRIPOS>ATOM
      1 N         143.2921  139.1143  170.9888 N.pl3   1  UNL1       -0.3262
      2 C         142.4049  139.4248  169.8199 C.ar    1  UNL1        0.2341
      3 N         140.9238  139.5570  170.0167 N.ar    1  UNL1       -0.1128
      4 N         140.0366  139.8675  168.8478 N.ar    1  UNL1       -0.1424
      5 C         140.6305  140.0459  167.4820 C.ar    1  UNL1        0.1348
      6 C         142.1116  139.9136  167.2851 C.ar    1  UNL1        0.1479
      7 N         142.7055  140.0920  165.9193 N.pl3   1  UNL1       -0.3413
      8 N         142.9988  139.6031  168.4541 N.ar    1  UNL1       -0.1967
      9 H         142.9023  138.9972  171.8852 H       1  UNL1        0.1452
     10 H         144.2643  139.0275  170.8596 H       1  UNL1        0.1452
     11 H         142.1232  140.2958  165.1520 H       1  UNL1        0.1438
     12 H         143.6777  140.0052  165.7901 H       1  UNL1        0.1438
     13 C         139.7433  140.3564  166.3131 C.ar    1  UNL1        0.0336
     14 C         139.1051  139.2414  165.5388 C.ar    1  UNL1        0.0025
     15 C         138.2178  139.5519  164.3699 C.ar    1  UNL1        0.0010
     16 C         137.9688  140.9774  163.9752 C.ar    1  UNL1        0.0122
     17 C         138.6070  142.0924  164.7494 C.ar    1  UNL1        0.0682
     18 CL        138.3580  143.5180  164.3547 Cl      1  UNL1       -0.0814
     19 C         139.4942  141.7819  165.9183 C.ar    1  UNL1        0.0698
     20 CL        140.1325  142.8970  166.6926 Cl      1  UNL1       -0.0813
@<TRIPOS>BOND
     1     1     2    1
     2     2     3   ar
     3     3     4   ar
     4     4     5   ar
     5     5    13    1
     6    13    14   ar
     7    14    15   ar
     8    15    16   ar
     9    16    17   ar
    10    17    18    1
    11    17    19   ar
    12    19    20    1
    13     5     6   ar
    14     6     7    1
    15     6     8   ar
    16     8     2   ar
    17    19    13   ar
    18     1     9    1
    19     1    10    1
    20     7    11    1
    21     7    12    1
@<TRIPOS>MOLECULE
*****
 20 21 0 0 0
SMALL
GASTEIGER

@<TRIPOS>ATOM
      1 N         139.6018  139.5082  171.1201 N.pl3   1  UNL1       -0.3262
      2 C         139.8364  140.3606  169.9084 C.ar    1  UNL1        0.2341
      3 N         140.3008  141.7781  170.0670 N.ar    1  UNL1       -0.1128
      4 N         140.5353  142.6305  168.8553 N.ar    1  UNL1       -0.1424
      5 C         140.3055  142.0656  167.4849 C.ar    1  UNL1        0.1348
      6 C         139.8411  140.6481  167.3263 C.ar    1  UNL1        0.1479
      7 N         139.6112  140.0831  165.9558 N.pl3   1  UNL1       -0.3413
      8 N         139.6065  139.7957  168.5380 N.ar    1  UNL1       -0.1967
      9 H         139.7527  139.8790  172.0195 H       1  UNL1        0.1452
     10 H         139.2970  138.5779  171.0160 H       1  UNL1        0.1452
     11 H         139.7651  140.6426  165.1605 H       1  UNL1        0.1438
     12 H         139.3064  139.1528  165.8517 H       1  UNL1        0.1438
     13 C         140.5400  142.9180  166.2732 C.ar    1  UNL1        0.0336
     14 C         139.4326  143.7726  165.7316 C.ar    1  UNL1        0.0025
     15 C         139.6672  144.6251  164.5199 C.ar    1  UNL1        0.0010
     16 C         141.0091  144.6230  163.8497 C.ar    1  UNL1        0.0122
     17 C         142.1165  143.7683  164.3912 C.ar    1  UNL1        0.0682
     18 CL        143.4585  143.7662  163.7211 Cl      1  UNL1       -0.0814
     19 C         141.8819  142.9159  165.6030 C.ar    1  UNL1        0.0698
     20 CL        142.9894  142.0612  166.1445 Cl      1  UNL1       -0.0813
@<TRIPOS>BOND
     1     1     2    1
     2     2     3   ar
     3     3     4   ar
     4     4     5   ar
     5     5    13    1
     6    13    14   ar
     7    14    15   ar
     8    15    16   ar
     9    16    17   ar
    10    17    18    1
    11    17    19   ar
    12    19    20    1
    13     5     6   ar
    14     6     7    1
    15     6     8   ar
    16     8     2   ar
    17    19    13   ar
    18     1     9    1
    19     1    10    1
    20     7    11    1
    21     7    12    1
