@<TRIPOS>MOLECULE
*****
 27 29 0 0 0
SMALL
GASTEIGER

@<TRIPOS>ATOM
      1 C         138.4753  141.4047  163.6434 C.cat   1  UNL1        0.4181
      2 N         139.5640  140.7304  164.4246 N.2     1  UNL1        0.0599
      3 N         138.2953  141.0949  162.1869 N.pl3   1  UNL1       -0.0877
      4 C         138.6174  142.0117  161.0442 C.3     1  UNL1        0.2015
      5 C         138.2828  141.2974  159.7683 C.3     1  UNL1        0.0760
      6 C         137.7539  139.9391  160.1225 C.2     1  UNL1        0.1100
      7 N         137.7616  139.8140  161.6172 N.2     1  UNL1       -0.1191
      8 C         138.8117  142.6557  159.4142 C.3     1  UNL1        0.0090
      9 C         138.8040  142.7808  157.9194 C.3     1  UNL1        0.0005
     10 C         138.2703  141.4999  157.3497 C.3     1  UNL1        0.0005
     11 C         137.9482  140.5831  158.4924 C.3     1  UNL1        0.0090
     12 S         139.7441  141.0402  165.8812 S.O2    1  UNL1        0.1557
     13 O         138.7445  139.9778  166.2307 O.2     1  UNL1       -0.1324
     14 O         140.7436  142.1025  165.5318 O.2     1  UNL1       -0.1324
     15 C         139.9241  141.3499  167.3379 C.ar    1  UNL1        0.1438
     16 C         139.5632  140.3256  168.3726 C.ar    1  UNL1        0.0230
     17 C         139.7432  140.6353  169.8291 C.ar    1  UNL1        0.0155
     18 C         140.2841  141.9692  170.2510 C.ar    1  UNL1        0.0416
     19 N         140.4642  142.2790  171.7076 N.pl3   1  UNL1       -0.3570
     20 C         140.6450  142.9935  169.2163 C.ar    1  UNL1        0.0155
     21 C         140.4650  142.6838  167.7597 C.ar    1  UNL1        0.0230
     22 H         140.2273  141.6067  172.3867 H       1  UNL1        0.1424
     23 H         140.8192  143.1545  171.9844 H       1  UNL1        0.1424
     24 N         137.5667  142.3886  164.3189 N.pl3   1  UNL1       -0.2217
     25 H         136.8299  142.0681  164.8878 H       1  UNL1        0.2454
     26 C         138.4436  144.6686  165.2035 C.3     1  UNL1        0.0436
     27 C         137.7805  143.8609  164.1274 C.3     1  UNL1        0.1638
@<TRIPOS>BOND
     1    26    27    1
     2    27    24    1
     3    24     1    1
     4     1     2    2
     5     2    12    1
     6    12    13    2
     7    12    14    2
     8    12    15    1
     9    15    16   ar
    10    16    17   ar
    11    17    18   ar
    12    18    19    1
    13    18    20   ar
    14    20    21   ar
    15     1     3    1
    16     3     4    1
    17     4     5    1
    18     5     6    1
    19     6     7    2
    20     5     8    1
    21     8     9    1
    22     9    10    1
    23    10    11    1
    24    21    15   ar
    25     7     3    1
    26    11     5    1
    27    24    25    1
    28    19    22    1
    29    19    23    1
@<TRIPOS>MOLECULE
*****
 27 29 0 0 0
SMALL
GASTEIGER

@<TRIPOS>ATOM
      1 C         139.1452  141.0019  164.0840 C.cat   1  UNL1        0.4181
      2 N         140.4435  141.7151  164.3200 N.2     1  UNL1        0.0599
      3 N         138.6909  140.7150  162.6836 N.pl3   1  UNL1       -0.0877
      4 C         138.8620  141.6186  161.4987 C.3     1  UNL1        0.2015
      5 C         138.2627  140.9362  160.3049 C.3     1  UNL1        0.0760
      6 C         137.7211  139.6107  160.7521 C.2     1  UNL1        0.1100
      7 N         137.9857  139.4740  162.2222 N.2     1  UNL1       -0.1191
      8 C         138.8042  142.2616  159.8577 C.3     1  UNL1        0.0090
      9 C         138.5395  142.3983  158.3876 C.3     1  UNL1        0.0005
     10 C         137.8344  141.1574  157.9262 C.3     1  UNL1        0.0005
     11 C         137.6633  140.2537  159.1111 C.3     1  UNL1        0.0090
     12 S         140.8978  142.0021  165.7205 S.O2    1  UNL1        0.1557
     13 O         141.6781  140.7210  165.7298 O.2     1  UNL1       -0.1324
     14 O         140.1177  143.2831  165.7111 O.2     1  UNL1       -0.1324
     15 C         141.3522  142.2890  167.1210 C.ar    1  UNL1        0.1438
     16 C         142.7586  141.9698  167.5334 C.ar    1  UNL1        0.0230
     17 C         143.2130  142.2567  168.9337 C.ar    1  UNL1        0.0155
     18 C         142.2609  142.8629  169.9218 C.ar    1  UNL1        0.0416
     19 N         142.7153  143.1499  171.3222 N.pl3   1  UNL1       -0.3570
     20 C         140.8545  143.1821  169.5093 C.ar    1  UNL1        0.0155
     21 C         140.4002  142.8952  168.1090 C.ar    1  UNL1        0.0230
     22 H         143.6383  142.9404  171.5929 H       1  UNL1        0.1424
     23 H         142.0904  143.5477  171.9706 H       1  UNL1        0.1424
     24 N         138.3012  140.5757  165.2485 N.pl3   1  UNL1       -0.2217
     25 H         137.7351  141.2336  165.7132 H       1  UNL1        0.2454
     26 C         137.8628  138.7961  167.0900 C.3     1  UNL1        0.0436
     27 C         138.3195  139.1469  165.7050 C.3     1  UNL1        0.1638
@<TRIPOS>BOND
     1    26    27    1
     2    27    24    1
     3    24     1    1
     4     1     2    2
     5     2    12    1
     6    12    13    2
     7    12    14    2
     8    12    15    1
     9    15    16   ar
    10    16    17   ar
    11    17    18   ar
    12    18    19    1
    13    18    20   ar
    14    20    21   ar
    15     1     3    1
    16     3     4    1
    17     4     5    1
    18     5     6    1
    19     6     7    2
    20     5     8    1
    21     8     9    1
    22     9    10    1
    23    10    11    1
    24    21    15   ar
    25     7     3    1
    26    11     5    1
    27    24    25    1
    28    19    22    1
    29    19    23    1
@<TRIPOS>MOLECULE
*****
 27 29 0 0 0
SMALL
GASTEIGER

@<TRIPOS>ATOM
      1 C         141.4646  143.5055  163.9443 C.cat   1  UNL1        0.4181
      2 N         142.6031  142.6060  164.3248 N.2     1  UNL1        0.0599
      3 N         141.3722  144.0491  162.5494 N.pl3   1  UNL1       -0.0877
      4 C         142.1346  143.5518  161.3571 C.3     1  UNL1        0.2015
      5 C         141.7347  144.3807  160.1725 C.3     1  UNL1        0.0760
      6 C         140.7252  145.3902  160.6328 C.2     1  UNL1        0.1100
      7 N         140.5011  145.1852  162.1017 N.2     1  UNL1       -0.1191
      8 C         142.7443  143.3712  159.7124 C.3     1  UNL1        0.0090
      9 C         142.9683  143.5762  158.2434 C.3     1  UNL1        0.0005
     10 C         142.0972  144.7124  157.7958 C.3     1  UNL1        0.0005
     11 C         141.3348  145.2096  158.9880 C.3     1  UNL1        0.0090
     12 S         142.6956  142.0624  165.7197 S.O2    1  UNL1        0.1557
     13 O         141.5863  141.0989  165.4179 O.2     1  UNL1       -0.1324
     14 O         143.8049  143.0258  166.0217 O.2     1  UNL1       -0.1324
     15 C         142.7881  141.5187  167.1148 C.ar    1  UNL1        0.1438
     16 C         143.2446  142.4043  168.2361 C.ar    1  UNL1        0.0230
     17 C         143.3371  141.8607  169.6310 C.ar    1  UNL1        0.0155
     18 C         142.9731  140.4315  169.9046 C.ar    1  UNL1        0.0416
     19 N         143.0656  139.8878  171.2996 N.pl3   1  UNL1       -0.3570
     20 C         142.5166  139.5459  168.7833 C.ar    1  UNL1        0.0155
     21 C         142.4241  140.0895  167.3884 C.ar    1  UNL1        0.0230
     22 H         143.3652  140.4690  172.0355 H       1  UNL1        0.1424
     23 H         142.8267  138.9498  171.4791 H       1  UNL1        0.1424
     24 N         140.4187  143.8615  164.9588 N.pl3   1  UNL1       -0.2217
     25 H         140.6494  144.4397  165.7216 H       1  UNL1        0.2454
     26 C         137.8633  144.2889  164.7648 C.3     1  UNL1        0.0436
     27 C         139.0213  143.3365  164.8113 C.3     1  UNL1        0.1638
@<TRIPOS>BOND
     1    26    27    1
     2    27    24    1
     3    24     1    1
     4     1     2    2
     5     2    12    1
     6    12    13    2
     7    12    14    2
     8    12    15    1
     9    15    16   ar
    10    16    17   ar
    11    17    18   ar
    12    18    19    1
    13    18    20   ar
    14    20    21   ar
    15     1     3    1
    16     3     4    1
    17     4     5    1
    18     5     6    1
    19     6     7    2
    20     5     8    1
    21     8     9    1
    22     9    10    1
    23    10    11    1
    24    21    15   ar
    25     7     3    1
    26    11     5    1
    27    24    25    1
    28    19    22    1
    29    19    23    1
@<TRIPOS>MOLECULE
*****
 27 29 0 0 0
SMALL
GASTEIGER

@<TRIPOS>ATOM
      1 C         140.4737  143.4769  163.3899 C.cat   1  UNL1        0.4181
      2 N         141.0177  142.2820  164.1154 N.2     1  UNL1        0.0599
      3 N         140.1794  143.3929  161.9216 N.pl3   1  UNL1       -0.0877
      4 C         140.4255  144.4728  160.9099 C.3     1  UNL1        0.2015
      5 C         139.9856  143.9617  159.5700 C.3     1  UNL1        0.0760
      6 C         139.4676  142.5659  159.7536 C.2     1  UNL1        0.1100
      7 N         139.5874  142.2145  161.2069 N.2     1  UNL1       -0.1191
      8 C         140.5036  145.3574  159.3864 C.3     1  UNL1        0.0090
      9 C         140.3838  145.7088  157.9331 C.3     1  UNL1        0.0005
     10 C         139.7918  144.5303  157.2185 C.3     1  UNL1        0.0005
     11 C         139.5457  143.4505  158.2301 C.3     1  UNL1        0.0090
     12 S         141.3119  142.3659  165.5838 S.O2    1  UNL1        0.1557
     13 O         140.0681  141.5809  165.8779 O.2     1  UNL1       -0.1324
     14 O         142.5557  143.1509  165.2898 O.2     1  UNL1       -0.1324
     15 C         141.6062  142.4498  167.0523 C.ar    1  UNL1        0.1438
     16 C         140.5172  142.8190  168.0156 C.ar    1  UNL1        0.0230
     17 C         140.8114  142.9029  169.4840 C.ar    1  UNL1        0.0155
     18 C         142.1947  142.6176  169.9892 C.ar    1  UNL1        0.0416
     19 N         142.4890  142.7014  171.4576 N.pl3   1  UNL1       -0.3570
     20 C         143.2836  142.2483  169.0260 C.ar    1  UNL1        0.0155
     21 C         142.9894  142.1644  167.5576 C.ar    1  UNL1        0.0230
     22 H         141.7743  142.9438  172.0899 H       1  UNL1        0.1424
     23 H         143.3968  142.5141  171.7892 H       1  UNL1        0.1424
     24 N         140.2240  144.7558  164.1330 N.pl3   1  UNL1       -0.2217
     25 H         140.9101  145.4617  164.1423 H       1  UNL1        0.2454
     26 C         137.7840  144.0169  164.6342 C.3     1  UNL1        0.0436
     27 C         138.9287  144.9592  164.8618 C.3     1  UNL1        0.1638
@<TRIPOS>BOND
     1    26    27    1
     2    27    24    1
     3    24     1    1
     4     1     2    2
     5     2    12    1
     6    12    13    2
     7    12    14    2
     8    12    15    1
     9    15    16   ar
    10    16    17   ar
    11    17    18   ar
    12    18    19    1
    13    18    20   ar
    14    20    21   ar
    15     1     3    1
    16     3     4    1
    17     4     5    1
    18     5     6    1
    19     6     7    2
    20     5     8    1
    21     8     9    1
    22     9    10    1
    23    10    11    1
    24    21    15   ar
    25     7     3    1
    26    11     5    1
    27    24    25    1
    28    19    22    1
    29    19    23    1
@<TRIPOS>MOLECULE
*****
 27 29 0 0 0
SMALL
GASTEIGER

@<TRIPOS>ATOM
      1 C         139.8535  143.3825  163.1697 C.cat   1  UNL1        0.4181
      2 N         140.9256  143.1311  164.1882 N.2     1  UNL1        0.0599
      3 N         140.1976  144.0369  161.8646 N.pl3   1  UNL1       -0.0877
      4 C         141.2464  143.5756  160.8965 C.3     1  UNL1        0.2015
      5 C         141.2504  144.5211  159.7320 C.3     1  UNL1        0.0760
      6 C         140.2041  145.5669  159.9805 C.2     1  UNL1        0.1100
      7 N         139.5535  145.2676  161.2985 N.2     1  UNL1       -0.1191
      8 C         142.2967  143.4753  159.4836 C.3     1  UNL1        0.0090
      9 C         142.9473  143.7746  158.1655 C.3     1  UNL1        0.0005
     10 C         142.3031  145.0053  157.5994 C.3     1  UNL1        0.0005
     11 C         141.2544  145.4667  158.5676 C.3     1  UNL1        0.0090
     12 S         140.5815  142.4766  165.4933 S.O2    1  UNL1        0.1557
     13 O         139.8354  143.7079  165.9141 O.2     1  UNL1       -0.1324
     14 O         141.3277  141.2453  165.0727 O.2     1  UNL1       -0.1324
     15 C         140.2375  141.8222  166.7985 C.ar    1  UNL1        0.1438
     16 C         140.5642  142.5093  168.0912 C.ar    1  UNL1        0.0230
     17 C         140.2201  141.8550  169.3963 C.ar    1  UNL1        0.0155
     18 C         139.5493  140.5134  169.4087 C.ar    1  UNL1        0.0416
     19 N         139.2052  139.8589  170.7138 N.pl3   1  UNL1       -0.3570
     20 C         139.2226  139.8262  168.1160 C.ar    1  UNL1        0.0155
     21 C         139.5666  140.4806  166.8110 C.ar    1  UNL1        0.0230
     22 H         139.4196  140.3099  171.5623 H       1  UNL1        0.1424
     23 H         138.7649  138.9784  170.7219 H       1  UNL1        0.1424
     24 N         138.4374  142.9795  163.4562 N.pl3   1  UNL1       -0.2217
     25 H         137.8957  143.5020  164.0909 H       1  UNL1        0.2454
     26 C         137.8324  140.4528  163.4740 C.3     1  UNL1        0.0436
     27 C         137.8465  141.7803  162.7757 C.3     1  UNL1        0.1638
@<TRIPOS>BOND
     1    26    27    1
     2    27    24    1
     3    24     1    1
     4     1     2    2
     5     2    12    1
     6    12    13    2
     7    12    14    2
     8    12    15    1
     9    15    16   ar
    10    16    17   ar
    11    17    18   ar
    12    18    19    1
    13    18    20   ar
    14    20    21   ar
    15     1     3    1
    16     3     4    1
    17     4     5    1
    18     5     6    1
    19     6     7    2
    20     5     8    1
    21     8     9    1
    22     9    10    1
    23    10    11    1
    24    21    15   ar
    25     7     3    1
    26    11     5    1
    27    24    25    1
    28    19    22    1
    29    19    23    1
@<TRIPOS>MOLECULE
*****
 27 29 0 0 0
SMALL
GASTEIGER

@<TRIPOS>ATOM
      1 C         140.0927  142.7119  163.5097 C.cat   1  UNL1        0.4181
      2 N         140.4906  141.6160  164.4535 N.2     1  UNL1        0.0599
      3 N         139.6059  142.3747  162.1316 N.pl3   1  UNL1       -0.0877
      4 C         139.9131  141.1191  161.3707 C.3     1  UNL1        0.2015
      5 C         139.2235  141.2023  160.0412 C.3     1  UNL1        0.0760
      6 C         138.4901  142.5094  159.9805 C.2     1  UNL1        0.1100
      7 N         138.7264  143.2340  161.2724 N.2     1  UNL1       -0.1191
      8 C         139.9569  139.8952  160.1019 C.3     1  UNL1        0.0090
      9 C         139.7205  139.1707  158.8099 C.3     1  UNL1        0.0005
     10 C         138.8410  140.0299  157.9507 C.3     1  UNL1        0.0005
     11 C         138.5338  141.2856  158.7117 C.3     1  UNL1        0.0090
     12 S         140.9774  141.9530  165.8317 S.O2    1  UNL1        0.1557
     13 O         139.6726  141.4873  166.4065 O.2     1  UNL1       -0.1324
     14 O         142.2823  142.4187  165.2569 O.2     1  UNL1       -0.1324
     15 C         141.4643  142.2901  167.2100 C.ar    1  UNL1        0.1438
     16 C         140.5202  142.8794  168.2156 C.ar    1  UNL1        0.0230
     17 C         141.0069  143.2164  169.5938 C.ar    1  UNL1        0.0155
     18 C         142.4379  142.9641  169.9663 C.ar    1  UNL1        0.0416
     19 N         142.9247  143.3011  171.3445 N.pl3   1  UNL1       -0.3570
     20 C         143.3820  142.3748  168.9606 C.ar    1  UNL1        0.0155
     21 C         142.8952  142.0377  167.5825 C.ar    1  UNL1        0.0230
     22 H         142.3051  143.6879  172.0045 H       1  UNL1        0.1424
     23 H         143.8639  143.1355  171.5889 H       1  UNL1        0.1424
     24 N         140.1818  144.1448  163.9441 N.pl3   1  UNL1       -0.2217
     25 H         140.9486  144.6964  163.6669 H       1  UNL1        0.2454
     26 C         137.7083  144.1870  164.7382 C.3     1  UNL1        0.0436
     27 C         139.1023  144.7373  164.8008 C.3     1  UNL1        0.1638
@<TRIPOS>BOND
     1    26    27    1
     2    27    24    1
     3    24     1    1
     4     1     2    2
     5     2    12    1
     6    12    13    2
     7    12    14    2
     8    12    15    1
     9    15    16   ar
    10    16    17   ar
    11    17    18   ar
    12    18    19    1
    13    18    20   ar
    14    20    21   ar
    15     1     3    1
    16     3     4    1
    17     4     5    1
    18     5     6    1
    19     6     7    2
    20     5     8    1
    21     8     9    1
    22     9    10    1
    23    10    11    1
    24    21    15   ar
    25     7     3    1
    26    11     5    1
    27    24    25    1
    28    19    22    1
    29    19    23    1
@<TRIPOS>MOLECULE
*****
 27 29 0 0 0
SMALL
GASTEIGER

@<TRIPOS>ATOM
      1 C         140.8247  143.6032  163.2854 C.cat   1  UNL1        0.4181
      2 N         140.6491  142.4061  164.1721 N.2     1  UNL1        0.0599
      3 N         140.4371  143.5279  161.8383 N.pl3   1  UNL1       -0.0877
      4 C         140.7434  144.5551  160.7890 C.3     1  UNL1        0.2015
      5 C         140.1708  144.0744  159.4886 C.3     1  UNL1        0.0760
      6 C         139.5105  142.7500  159.7343 C.2     1  UNL1        0.1100
      7 N         139.6751  142.4124  161.1865 N.2     1  UNL1       -0.1191
      8 C         140.8310  145.3986  159.2429 C.3     1  UNL1        0.0090
      9 C         140.6664  145.7363  157.7907 C.3     1  UNL1        0.0005
     10 C         139.9045  144.6207  157.1389 C.3     1  UNL1        0.0005
     11 C         139.5981  143.5936  158.1882 C.3     1  UNL1        0.0090
     12 S         141.0366  142.4813  165.6192 S.O2    1  UNL1        0.1557
     13 O         142.1835  141.5498  165.3604 O.2     1  UNL1       -0.1324
     14 O         139.8898  143.4128  165.8780 O.2     1  UNL1       -0.1324
     15 C         141.4243  142.5565  167.0663 C.ar    1  UNL1        0.1438
     16 C         142.8254  142.2234  167.4858 C.ar    1  UNL1        0.0230
     17 C         143.2130  142.2986  168.9328 C.ar    1  UNL1        0.0155
     18 C         142.1995  142.7068  169.9605 C.ar    1  UNL1        0.0416
     19 N         142.5870  142.7820  171.4076 N.pl3   1  UNL1       -0.3570
     20 C         140.7984  143.0399  169.5410 C.ar    1  UNL1        0.0155
     21 C         140.4107  142.9647  168.0940 C.ar    1  UNL1        0.0230
     22 H         143.5066  142.5634  171.6829 H       1  UNL1        0.1424
     23 H         141.9218  143.0499  172.0821 H       1  UNL1        0.1424
     24 N         141.3878  144.8755  163.8458 N.pl3   1  UNL1       -0.2217
     25 H         140.7856  145.5540  164.2282 H       1  UNL1        0.2454
     26 C         143.7524  144.2640  162.9597 C.3     1  UNL1        0.0436
     27 C         142.8686  145.1141  163.8236 C.3     1  UNL1        0.1638
@<TRIPOS>BOND
     1    26    27    1
     2    27    24    1
     3    24     1    1
     4     1     2    2
     5     2    12    1
     6    12    13    2
     7    12    14    2
     8    12    15    1
     9    15    16   ar
    10    16    17   ar
    11    17    18   ar
    12    18    19    1
    13    18    20   ar
    14    20    21   ar
    15     1     3    1
    16     3     4    1
    17     4     5    1
    18     5     6    1
    19     6     7    2
    20     5     8    1
    21     8     9    1
    22     9    10    1
    23    10    11    1
    24    21    15   ar
    25     7     3    1
    26    11     5    1
    27    24    25    1
    28    19    22    1
    29    19    23    1
@<TRIPOS>MOLECULE
*****
 27 29 0 0 0
SMALL
GASTEIGER

@<TRIPOS>ATOM
      1 C         139.6107  139.7358  163.4929 C.cat   1  UNL1        0.4181
      2 N         140.3530  140.9079  164.0632 N.2     1  UNL1        0.0599
      3 N         139.6961  139.4359  162.0258 N.pl3   1  UNL1       -0.0877
      4 C         140.9114  138.9468  161.2951 C.3     1  UNL1        0.2015
      5 C         140.5476  138.7810  159.8493 C.3     1  UNL1        0.0760
      6 C         139.1074  139.1676  159.6865 C.2     1  UNL1        0.1100
      7 N         138.5812  139.5723  161.0316 N.2     1  UNL1       -0.1191
      8 C         141.9877  138.3944  160.0122 C.3     1  UNL1        0.0090
      9 C         142.5139  137.9896  158.6671 C.3     1  UNL1        0.0005
     10 C         141.3990  138.1261  157.6729 C.3     1  UNL1        0.0005
     11 C         140.1838  138.6152  158.4036 C.3     1  UNL1        0.0090
     12 S         140.2677  141.2079  165.5304 S.O2    1  UNL1        0.1557
     13 O         138.9145  141.8221  165.3262 O.2     1  UNL1       -0.1324
     14 O         141.6208  140.5938  165.7347 O.2     1  UNL1       -0.1324
     15 C         140.1823  141.5080  166.9977 C.ar    1  UNL1        0.1438
     16 C         139.7130  140.4513  167.9533 C.ar    1  UNL1        0.0230
     17 C         139.6277  140.7513  169.4204 C.ar    1  UNL1        0.0155
     18 C         140.0117  142.1081  169.9320 C.ar    1  UNL1        0.0416
     19 N         139.9263  142.4082  171.3992 N.pl3   1  UNL1       -0.3570
     20 C         140.4810  143.1648  168.9765 C.ar    1  UNL1        0.0155
     21 C         140.5663  142.8648  167.5093 C.ar    1  UNL1        0.0230
     22 H         139.6183  141.7146  172.0264 H       1  UNL1        0.1424
     23 H         140.1784  143.2986  171.7350 H       1  UNL1        0.1424
     24 N         138.7832  138.8637  164.3899 N.pl3   1  UNL1       -0.2217
     25 H         137.8699  139.1367  164.6359 H       1  UNL1        0.2454
     26 C         140.7884  137.2359  164.6722 C.3     1  UNL1        0.0436
     27 C         139.3472  137.5755  164.9120 C.3     1  UNL1        0.1638
@<TRIPOS>BOND
     1    26    27    1
     2    27    24    1
     3    24     1    1
     4     1     2    2
     5     2    12    1
     6    12    13    2
     7    12    14    2
     8    12    15    1
     9    15    16   ar
    10    16    17   ar
    11    17    18   ar
    12    18    19    1
    13    18    20   ar
    14    20    21   ar
    15     1     3    1
    16     3     4    1
    17     4     5    1
    18     5     6    1
    19     6     7    2
    20     5     8    1
    21     8     9    1
    22     9    10    1
    23    10    11    1
    24    21    15   ar
    25     7     3    1
    26    11     5    1
    27    24    25    1
    28    19    22    1
    29    19    23    1
@<TRIPOS>MOLECULE
*****
 27 29 0 0 0
SMALL
GASTEIGER

@<TRIPOS>ATOM
      1 C         140.4570  140.1480  165.1521 C.cat   1  UNL1        0.4181
      2 N         141.8756  140.0812  164.6692 N.2     1  UNL1        0.0599
      3 N         140.1678  140.4793  166.5861 N.pl3   1  UNL1       -0.0877
      4 C         140.4584  141.7847  167.2653 C.3     1  UNL1        0.2015
      5 C         140.0074  141.6756  168.6918 C.3     1  UNL1        0.0760
      6 C         139.4380  140.3026  168.8941 C.2     1  UNL1        0.1100
      7 N         139.5372  139.5633  167.5927 N.2     1  UNL1       -0.1191
      8 C         140.5767  143.0485  168.4894 C.3     1  UNL1        0.0090
      9 C         140.4776  143.7879  169.7907 C.3     1  UNL1        0.0005
     10 C         139.8470  142.8719  170.7974 C.3     1  UNL1        0.0005
     11 C         139.5564  141.5664  170.1182 C.3     1  UNL1        0.0090
     12 S         142.1650  139.7499  163.2351 S.O2    1  UNL1        0.1557
     13 O         142.5722  138.3635  163.6376 O.2     1  UNL1       -0.1324
     14 O         141.7577  141.1363  162.8326 O.2     1  UNL1       -0.1324
     15 C         142.4543  139.4186  161.8010 C.ar    1  UNL1        0.1438
     16 C         142.6069  137.9876  161.3779 C.ar    1  UNL1        0.0230
     17 C         142.8963  137.6563  159.9439 C.ar    1  UNL1        0.0155
     18 C         143.0330  138.7560  158.9330 C.ar    1  UNL1        0.0416
     19 N         143.3223  138.4247  157.4989 N.pl3   1  UNL1       -0.3570
     20 C         142.8804  140.1870  159.3561 C.ar    1  UNL1        0.0155
     21 C         142.5910  140.5183  160.7901 C.ar    1  UNL1        0.0230
     22 H         143.4225  137.4856  157.2212 H       1  UNL1        0.1424
     23 H         143.4121  139.1465  156.8354 H       1  UNL1        0.1424
     24 N         139.3278  139.8836  164.2009 N.pl3   1  UNL1       -0.2217
     25 H         138.9569  140.6183  163.6606 H       1  UNL1        0.2454
     26 C         138.9249  137.7396  162.7898 C.3     1  UNL1        0.0436
     27 C         138.7634  138.4996  164.0728 C.3     1  UNL1        0.1638
@<TRIPOS>BOND
     1    26    27    1
     2    27    24    1
     3    24     1    1
     4     1     2    2
     5     2    12    1
     6    12    13    2
     7    12    14    2
     8    12    15    1
     9    15    16   ar
    10    16    17   ar
    11    17    18   ar
    12    18    19    1
    13    18    20   ar
    14    20    21   ar
    15     1     3    1
    16     3     4    1
    17     4     5    1
    18     5     6    1
    19     6     7    2
    20     5     8    1
    21     8     9    1
    22     9    10    1
    23    10    11    1
    24    21    15   ar
    25     7     3    1
    26    11     5    1
    27    24    25    1
    28    19    22    1
    29    19    23    1
