@<TRIPOS>MOLECULE
*****
 43 47 0 0 0
SMALL
GASTEIGER

@<TRIPOS>ATOM
      1 C         140.9209  141.6690  165.6654 C.3     1  UNL1        0.0764
      2 C         140.8170  142.6115  164.5030 C.ar    1  UNL1        0.0181
      3 C         141.5372  142.3062  163.2232 C.ar    1  UNL1       -0.0009
      4 C         141.4333  143.2487  162.0609 C.ar    1  UNL1        0.0004
      5 C         142.1535  142.9434  160.7810 C.ar    1  UNL1        0.0067
      6 C         142.0496  143.8859  159.6188 C.ar    1  UNL1        0.0346
      7 BR        142.7699  143.5806  158.3389 Br      1  UNL1       -0.0490
      8 C         141.2255  145.1337  159.7364 C.ar    1  UNL1        0.0067
      9 C         140.5052  145.4390  161.0162 C.ar    1  UNL1        0.0006
     10 C         140.6091  144.4965  162.1784 C.ar    1  UNL1        0.0030
     11 C         139.8889  144.8017  163.4584 C.ar    1  UNL1        0.0366
     12 C         139.9928  143.8593  164.6206 C.ar    1  UNL1        0.1351
     13 O         139.2725  144.1645  165.9005 O.3     1  UNL1       -0.4717
     14 C         138.1508  145.1603  165.9107 C.3     1  UNL1        0.2525
     15 C         138.9069  138.3993  164.6637 C.ar    1  UNL1        0.2271
     16 C         139.8250  139.5821  164.5728 C.ar    1  UNL1        0.0540
     17 C         140.0028  140.4863  165.7563 C.ar    1  UNL1       -0.0064
     18 C         139.2624  140.2078  167.0308 C.ar    1  UNL1        0.0540
     19 C         138.3443  139.0251  167.1218 C.ar    1  UNL1        0.2271
     20 N         138.1665  138.1209  165.9382 N.ar    1  UNL1       -0.1767
     21 O         138.7291  137.4952  163.4802 O.3     1  UNL1       -0.4602
     22 C         137.7210  138.8354  161.4959 C.3     1  UNL1        0.0512
     23 C         138.8498  138.0464  162.0905 C.3     1  UNL1        0.2072
     24 O         137.6040  138.7466  168.3963 O.3     1  UNL1       -0.4602
     25 C         137.9500  139.5023  169.6451 C.3     1  UNL1        0.2072
     26 C         137.0663  139.3997  170.8528 C.3     1  UNL1        0.0512
     27 C         141.9429  141.9092  166.7367 C.3     1  UNL1        0.1186
     28 O         140.9833  142.8159  167.4488 O.3     1  UNL1       -0.3819
     29 H         140.5661  142.3347  168.1805 H       1  UNL1        0.2107
     30 C         142.9025  141.0026  166.0246 C.ar    1  UNL1        0.0369
     31 C         142.8621  139.5239  166.2730 C.ar    1  UNL1        0.0010
     32 C         143.8217  138.6172  165.5609 C.ar    1  UNL1       -0.0000
     33 C         144.8217  139.1893  164.6003 C.ar    1  UNL1        0.0031
     34 C         144.8621  140.6680  164.3519 C.ar    1  UNL1        0.0375
     35 C         145.7299  141.5139  163.4680 C.ar    1  UNL1        0.0437
     36 C         145.3067  142.9434  163.6338 C.ar    1  UNL1        0.1796
     37 O         144.1772  142.9810  164.6203 O.2     1  UNL1       -0.4507
     38 C         143.9025  141.5746  165.0640 C.ar    1  UNL1        0.1436
     39 C         142.9649  142.1495  167.8080 C.3     1  UNL1        0.0492
     40 C         142.5251  142.4448  169.2115 C.3     1  UNL1        0.0750
     41 N         141.8860  141.3693  170.0391 N.3     1  UNL1       -0.2702
     42 C         142.4033  139.9631  169.9705 C.3     1  UNL1        0.0897
     43 C         140.7296  141.7002  170.9354 C.3     1  UNL1        0.0897
@<TRIPOS>BOND
     1    22    23    1
     2    23    21    1
     3    21    15    1
     4    15    16   ar
     5    16    17   ar
     6     1    17    1
     7     1     2    1
     8     2     3   ar
     9     3     4   ar
    10     4     5   ar
    11     5     6   ar
    12     6     7    1
    13     6     8   ar
    14     8     9   ar
    15     9    10   ar
    16    10    11   ar
    17    11    12   ar
    18    12    13    1
    19    13    14    1
    20     1    27    1
    21    27    28    1
    22    27    39    1
    23    39    40    1
    24    40    41    1
    25    41    42    1
    26    41    43    1
    27    27    30    1
    28    30    31   ar
    29    31    32   ar
    30    32    33   ar
    31    33    34   ar
    32    34    35   ar
    33    35    36   ar
    34    36    37   ar
    35    37    38   ar
    36    17    18   ar
    37    18    19   ar
    38    19    24    1
    39    24    25    1
    40    25    26    1
    41    19    20   ar
    42    20    15   ar
    43    12     2   ar
    44    38    30   ar
    45    10     4   ar
    46    38    34   ar
    47    28    29    1
@<TRIPOS>MOLECULE
*****
 43 47 0 0 0
SMALL
GASTEIGER

@<TRIPOS>ATOM
      1 C         141.9851  141.2129  163.0244 C.3     1  UNL1        0.0764
      2 C         142.3048  141.5020  164.4612 C.ar    1  UNL1        0.0181
      3 C         141.4525  140.9219  165.5506 C.ar    1  UNL1       -0.0009
      4 C         141.7722  141.2110  166.9874 C.ar    1  UNL1        0.0004
      5 C         140.9199  140.6309  168.0768 C.ar    1  UNL1        0.0067
      6 C         141.2397  140.9200  169.5135 C.ar    1  UNL1        0.0346
      7 BR        140.3874  140.3399  170.6031 Br      1  UNL1       -0.0490
      8 C         142.4118  141.7893  169.8607 C.ar    1  UNL1        0.0067
      9 C         143.2641  142.3695  168.7713 C.ar    1  UNL1        0.0006
     10 C         142.9443  142.0803  167.3346 C.ar    1  UNL1        0.0030
     11 C         143.7966  142.6604  166.2451 C.ar    1  UNL1        0.0366
     12 C         143.4769  142.3713  164.8084 C.ar    1  UNL1        0.1351
     13 O         144.3292  142.9514  163.7188 O.3     1  UNL1       -0.4717
     14 C         144.0255  144.3162  163.1754 C.3     1  UNL1        0.2525
     15 C         140.5694  143.4362  160.0575 C.ar    1  UNL1        0.2271
     16 C         141.4497  142.5013  160.8328 C.ar    1  UNL1        0.0540
     17 C         141.1048  142.1477  162.2491 C.ar    1  UNL1       -0.0064
     18 C         139.8796  142.7290  162.8902 C.ar    1  UNL1        0.0540
     19 C         138.9993  143.6639  162.1149 C.ar    1  UNL1        0.2271
     20 N         139.3442  144.0175  160.6985 N.ar    1  UNL1       -0.1767
     21 O         140.9143  143.7897  158.6412 O.3     1  UNL1       -0.4602
     22 C         142.0405  145.8658  157.5587 C.3     1  UNL1        0.0512
     23 C         140.8421  145.2170  158.1856 C.3     1  UNL1        0.2072
     24 O         137.7741  144.2452  162.7560 O.3     1  UNL1       -0.4602
     25 C         137.5519  144.0858  164.2309 C.3     1  UNL1        0.2072
     26 C         138.4344  144.8089  165.2047 C.3     1  UNL1        0.0512
     27 C         142.5456  139.9888  162.3630 C.3     1  UNL1        0.1186
     28 O         143.7068  140.7933  161.8584 O.3     1  UNL1       -0.3819
     29 H         144.4773  140.6409  162.4276 H       1  UNL1        0.2107
     30 C         141.3845  139.1844  162.8675 C.ar    1  UNL1        0.0369
     31 C         141.5065  138.4130  164.1482 C.ar    1  UNL1        0.0010
     32 C         140.3453  137.6086  164.6527 C.ar    1  UNL1       -0.0000
     33 C         139.0622  137.5755  163.8767 C.ar    1  UNL1        0.0031
     34 C         138.9401  138.3469  162.5961 C.ar    1  UNL1        0.0375
     35 C         137.8097  138.5037  161.6226 C.ar    1  UNL1        0.0437
     36 C         138.2722  139.4051  160.5164 C.ar    1  UNL1        0.1796
     37 O         139.6886  139.8053  160.8062 O.2     1  UNL1       -0.4507
     38 C         140.1013  139.1513  162.0915 C.ar    1  UNL1        0.1436
     39 C         143.1062  138.7648  161.7015 C.3     1  UNL1        0.0492
     40 C         144.0630  138.9036  160.5546 C.3     1  UNL1        0.0750
     41 N         143.5419  139.1295  159.1663 N.3     1  UNL1       -0.2702
     42 C         142.6150  138.1295  158.5412 C.3     1  UNL1        0.0897
     43 C         143.9477  140.3555  158.4031 C.3     1  UNL1        0.0897
@<TRIPOS>BOND
     1    22    23    1
     2    23    21    1
     3    21    15    1
     4    15    16   ar
     5    16    17   ar
     6     1    17    1
     7     1     2    1
     8     2     3   ar
     9     3     4   ar
    10     4     5   ar
    11     5     6   ar
    12     6     7    1
    13     6     8   ar
    14     8     9   ar
    15     9    10   ar
    16    10    11   ar
    17    11    12   ar
    18    12    13    1
    19    13    14    1
    20     1    27    1
    21    27    28    1
    22    27    39    1
    23    39    40    1
    24    40    41    1
    25    41    42    1
    26    41    43    1
    27    27    30    1
    28    30    31   ar
    29    31    32   ar
    30    32    33   ar
    31    33    34   ar
    32    34    35   ar
    33    35    36   ar
    34    36    37   ar
    35    37    38   ar
    36    17    18   ar
    37    18    19   ar
    38    19    24    1
    39    24    25    1
    40    25    26    1
    41    19    20   ar
    42    20    15   ar
    43    12     2   ar
    44    38    30   ar
    45    10     4   ar
    46    38    34   ar
    47    28    29    1
@<TRIPOS>MOLECULE
*****
 43 47 0 0 0
SMALL
GASTEIGER

@<TRIPOS>ATOM
      1 C         142.0122  141.9258  162.7825 C.3     1  UNL1        0.0764
      2 C         142.3113  142.0713  164.2452 C.ar    1  UNL1        0.0181
      3 C         141.2501  141.7693  165.2614 C.ar    1  UNL1       -0.0009
      4 C         141.5492  141.9148  166.7241 C.ar    1  UNL1        0.0004
      5 C         140.4881  141.6128  167.7403 C.ar    1  UNL1        0.0067
      6 C         140.7872  141.7582  169.2029 C.ar    1  UNL1        0.0346
      7 BR        139.7260  141.4562  170.2191 Br      1  UNL1       -0.0490
      8 C         142.1475  142.2057  169.6493 C.ar    1  UNL1        0.0067
      9 C         143.2087  142.5077  168.6331 C.ar    1  UNL1        0.0006
     10 C         142.9096  142.3622  167.1705 C.ar    1  UNL1        0.0030
     11 C         143.9708  142.6643  166.1543 C.ar    1  UNL1        0.0366
     12 C         143.6716  142.5188  164.6916 C.ar    1  UNL1        0.1351
     13 O         144.7328  142.8208  163.6754 O.3     1  UNL1       -0.4717
     14 C         145.7463  141.7750  163.3158 C.3     1  UNL1        0.2525
     15 C         142.9935  139.1444  160.1272 C.ar    1  UNL1        0.2271
     16 C         142.8507  140.4811  160.7927 C.ar    1  UNL1        0.0540
     17 C         142.1550  140.5891  162.1171 C.ar    1  UNL1       -0.0064
     18 C         141.6019  139.3604  162.7761 C.ar    1  UNL1        0.0540
     19 C         141.7447  138.0236  162.1108 C.ar    1  UNL1        0.2271
     20 N         142.4405  137.9156  160.7863 N.ar    1  UNL1       -0.1767
     21 O         143.6893  139.0364  158.8028 O.3     1  UNL1       -0.4602
     22 C         141.5774  138.8072  157.3070 C.3     1  UNL1        0.0512
     23 C         142.9509  139.3638  157.5388 C.3     1  UNL1        0.2072
     24 O         141.1916  136.7949  162.7698 O.3     1  UNL1       -0.4602
     25 C         140.9091  136.7967  164.2430 C.3     1  UNL1        0.2072
     26 C         139.6424  137.4092  164.7629 C.3     1  UNL1        0.0512
     27 C         141.5703  143.1171  161.9852 C.3     1  UNL1        0.1186
     28 O         143.0001  143.4234  161.6506 O.3     1  UNL1       -0.3819
     29 H         143.1990  143.1023  160.7571 H       1  UNL1        0.2107
     30 C         140.1406  142.8108  162.3199 C.ar    1  UNL1        0.0369
     31 C         139.3930  141.7724  161.5371 C.ar    1  UNL1        0.0010
     32 C         137.9632  141.4661  161.8718 C.ar    1  UNL1       -0.0000
     33 C         137.2811  142.1981  162.9893 C.ar    1  UNL1        0.0031
     34 C         138.0287  143.2365  163.7720 C.ar    1  UNL1        0.0375
     35 C         137.6229  144.1140  164.9189 C.ar    1  UNL1        0.0437
     36 C         138.8018  144.9627  165.2930 C.ar    1  UNL1        0.1796
     37 O         139.9363  144.6097  164.3774 O.2     1  UNL1       -0.4507
     38 C         139.4585  143.5428  163.4374 C.ar    1  UNL1        0.1436
     39 C         141.1285  144.3084  161.1880 C.3     1  UNL1        0.0492
     40 C         141.7933  144.6247  159.8810 C.3     1  UNL1        0.0750
     41 N         141.9758  143.5482  158.8525 N.3     1  UNL1       -0.2702
     42 C         143.3368  143.2780  158.2829 C.3     1  UNL1        0.0897
     43 C         140.7971  142.7418  158.3936 C.3     1  UNL1        0.0897
@<TRIPOS>BOND
     1    22    23    1
     2    23    21    1
     3    21    15    1
     4    15    16   ar
     5    16    17   ar
     6     1    17    1
     7     1     2    1
     8     2     3   ar
     9     3     4   ar
    10     4     5   ar
    11     5     6   ar
    12     6     7    1
    13     6     8   ar
    14     8     9   ar
    15     9    10   ar
    16    10    11   ar
    17    11    12   ar
    18    12    13    1
    19    13    14    1
    20     1    27    1
    21    27    28    1
    22    27    39    1
    23    39    40    1
    24    40    41    1
    25    41    42    1
    26    41    43    1
    27    27    30    1
    28    30    31   ar
    29    31    32   ar
    30    32    33   ar
    31    33    34   ar
    32    34    35   ar
    33    35    36   ar
    34    36    37   ar
    35    37    38   ar
    36    17    18   ar
    37    18    19   ar
    38    19    24    1
    39    24    25    1
    40    25    26    1
    41    19    20   ar
    42    20    15   ar
    43    12     2   ar
    44    38    30   ar
    45    10     4   ar
    46    38    34   ar
    47    28    29    1
@<TRIPOS>MOLECULE
*****
 43 47 0 0 0
SMALL
GASTEIGER

@<TRIPOS>ATOM
      1 C         142.0144  141.1999  163.0371 C.3     1  UNL1        0.0764
      2 C         142.3301  141.4965  164.4732 C.ar    1  UNL1        0.0181
      3 C         141.4826  140.9112  165.5637 C.ar    1  UNL1       -0.0009
      4 C         141.7983  141.2078  166.9999 C.ar    1  UNL1        0.0004
      5 C         140.9509  140.6225  168.0904 C.ar    1  UNL1        0.0067
      6 C         141.2666  140.9191  169.5264 C.ar    1  UNL1        0.0346
      7 BR        140.4191  140.3338  170.6170 Br      1  UNL1       -0.0490
      8 C         142.4297  141.8010  169.8720 C.ar    1  UNL1        0.0067
      9 C         143.2772  142.3862  168.7815 C.ar    1  UNL1        0.0006
     10 C         142.9615  142.0896  167.3454 C.ar    1  UNL1        0.0030
     11 C         143.8089  142.6749  166.2548 C.ar    1  UNL1        0.0366
     12 C         143.4932  142.3783  164.8188 C.ar    1  UNL1        0.1351
     13 O         144.3407  142.9636  163.7282 O.3     1  UNL1       -0.4717
     14 C         144.0283  144.3266  163.1853 C.3     1  UNL1        0.2525
     15 C         139.0623  143.6820  162.1022 C.ar    1  UNL1        0.2271
     16 C         139.9313  142.7453  162.8880 C.ar    1  UNL1        0.0540
     17 C         141.1454  142.1365  162.2513 C.ar    1  UNL1       -0.0064
     18 C         141.4905  142.4644  160.8288 C.ar    1  UNL1        0.0540
     19 C         140.6215  143.4011  160.0430 C.ar    1  UNL1        0.2271
     20 N         139.4073  144.0099  160.6797 N.ar    1  UNL1       -0.1767
     21 O         137.8482  144.2907  162.7389 O.3     1  UNL1       -0.4602
     22 C         138.3834  144.7989  165.2300 C.3     1  UNL1        0.0512
     23 C         137.5757  144.0699  164.1973 C.3     1  UNL1        0.2072
     24 O         140.9666  143.7290  158.6206 O.3     1  UNL1       -0.4602
     25 C         141.4084  145.1155  158.2565 C.3     1  UNL1        0.2072
     26 C         140.4799  146.0268  157.5099 C.3     1  UNL1        0.0512
     27 C         142.5677  139.9666  162.3868 C.3     1  UNL1        0.1186
     28 O         143.7391  140.7573  161.8841 O.3     1  UNL1       -0.3819
     29 H         144.5049  140.6016  162.4588 H       1  UNL1        0.2107
     30 C         141.3963  139.1760  162.8894 C.ar    1  UNL1        0.0369
     31 C         141.5036  138.4120  164.1758 C.ar    1  UNL1        0.0010
     32 C         140.3322  137.6213  164.6784 C.ar    1  UNL1       -0.0000
     33 C         139.0535  137.5947  163.8948 C.ar    1  UNL1        0.0031
     34 C         138.9462  138.3587  162.6084 C.ar    1  UNL1        0.0375
     35 C         137.8232  138.5193  161.6271 C.ar    1  UNL1        0.0437
     36 C         138.3005  139.4092  160.5179 C.ar    1  UNL1        0.1796
     37 O         139.7186  139.7986  160.8137 O.2     1  UNL1       -0.4507
     38 C         140.1176  139.1493  162.1058 C.ar    1  UNL1        0.1436
     39 C         143.1211  138.7334  161.7365 C.3     1  UNL1        0.0492
     40 C         144.0708  138.8561  160.5819 C.3     1  UNL1        0.0750
     41 N         143.5416  139.0740  159.1953 N.3     1  UNL1       -0.2702
     42 C         143.9013  140.3205  158.4425 C.3     1  UNL1        0.0897
     43 C         142.6525  138.0453  158.5617 C.3     1  UNL1        0.0897
@<TRIPOS>BOND
     1    22    23    1
     2    23    21    1
     3    21    15    1
     4    15    16   ar
     5    16    17   ar
     6     1    17    1
     7     1     2    1
     8     2     3   ar
     9     3     4   ar
    10     4     5   ar
    11     5     6   ar
    12     6     7    1
    13     6     8   ar
    14     8     9   ar
    15     9    10   ar
    16    10    11   ar
    17    11    12   ar
    18    12    13    1
    19    13    14    1
    20     1    27    1
    21    27    28    1
    22    27    39    1
    23    39    40    1
    24    40    41    1
    25    41    42    1
    26    41    43    1
    27    27    30    1
    28    30    31   ar
    29    31    32   ar
    30    32    33   ar
    31    33    34   ar
    32    34    35   ar
    33    35    36   ar
    34    36    37   ar
    35    37    38   ar
    36    17    18   ar
    37    18    19   ar
    38    19    24    1
    39    24    25    1
    40    25    26    1
    41    19    20   ar
    42    20    15   ar
    43    12     2   ar
    44    38    30   ar
    45    10     4   ar
    46    38    34   ar
    47    28    29    1
@<TRIPOS>MOLECULE
*****
 43 47 0 0 0
SMALL
GASTEIGER

@<TRIPOS>ATOM
      1 C         140.2407  140.6800  163.1591 C.3     1  UNL1        0.0764
      2 C         140.0690  140.5922  164.6467 C.ar    1  UNL1        0.0181
      3 C         140.3431  141.7911  165.5054 C.ar    1  UNL1       -0.0009
      4 C         140.1714  141.7033  166.9930 C.ar    1  UNL1        0.0004
      5 C         140.4455  142.9023  167.8516 C.ar    1  UNL1        0.0067
      6 C         140.2739  142.8144  169.3392 C.ar    1  UNL1        0.0346
      7 BR        140.5479  144.0134  170.1979 Br      1  UNL1       -0.0490
      8 C         139.8282  141.5276  169.9680 C.ar    1  UNL1        0.0067
      9 C         139.5541  140.3286  169.1094 C.ar    1  UNL1        0.0006
     10 C         139.7257  140.4165  167.6218 C.ar    1  UNL1        0.0030
     11 C         139.4517  139.2175  166.7631 C.ar    1  UNL1        0.0366
     12 C         139.6233  139.3054  165.2756 C.ar    1  UNL1        0.1351
     13 O         139.3493  138.1064  164.4168 O.3     1  UNL1       -0.4717
     14 C         140.4399  137.1127  164.1460 C.3     1  UNL1        0.2525
     15 C         143.8997  141.9465  162.2887 C.ar    1  UNL1        0.2271
     16 C         142.5235  141.8891  162.8828 C.ar    1  UNL1        0.0540
     17 C         141.6168  140.7373  162.5650 C.ar    1  UNL1       -0.0064
     18 C         142.0862  139.6427  161.6531 C.ar    1  UNL1        0.0540
     19 C         143.4623  139.7000  161.0590 C.ar    1  UNL1        0.2271
     20 N         144.3691  140.8519  161.3768 N.ar    1  UNL1       -0.1767
     21 O         144.8064  143.0983  162.6065 O.3     1  UNL1       -0.4602
     22 C         143.7752  144.9781  164.0740 C.3     1  UNL1        0.0512
     23 C         144.2429  144.4822  162.7377 C.3     1  UNL1        0.2072
     24 O         143.9317  138.6054  160.1470 O.3     1  UNL1       -0.4602
     25 C         142.9337  137.7096  159.4750 C.3     1  UNL1        0.2072
     26 C         142.7057  137.8170  157.9963 C.3     1  UNL1        0.0512
     27 C         139.0362  140.7105  162.2657 C.3     1  UNL1        0.1186
     28 O         139.3581  139.3268  161.7843 O.3     1  UNL1       -0.3819
     29 H         138.7976  138.6847  162.2474 H       1  UNL1        0.2107
     30 C         138.7142  142.0942  162.7470 C.ar    1  UNL1        0.0369
     31 C         137.7518  142.2888  163.8810 C.ar    1  UNL1        0.0010
     32 C         137.4298  143.6725  164.3623 C.ar    1  UNL1       -0.0000
     33 C         138.0702  144.8616  163.7097 C.ar    1  UNL1        0.0031
     34 C         139.0326  144.6670  162.5758 C.ar    1  UNL1        0.0375
     35 C         139.8132  145.6406  161.7435 C.ar    1  UNL1        0.0437
     36 C         140.6177  144.8587  160.7478 C.ar    1  UNL1        0.1796
     37 O         140.3342  143.4017  160.9646 O.2     1  UNL1       -0.4507
     38 C         139.3546  143.2833  162.0944 C.ar    1  UNL1        0.1436
     39 C         137.8316  140.7410  161.3722 C.3     1  UNL1        0.0492
     40 C         137.7995  139.9040  160.1279 C.3     1  UNL1        0.0750
     41 N         138.5161  140.3667  158.8940 N.3     1  UNL1       -0.2702
     42 C         139.3357  139.3974  158.0948 C.3     1  UNL1        0.0897
     43 C         138.4130  141.7987  158.4594 C.3     1  UNL1        0.0897
@<TRIPOS>BOND
     1    22    23    1
     2    23    21    1
     3    21    15    1
     4    15    16   ar
     5    16    17   ar
     6     1    17    1
     7     1     2    1
     8     2     3   ar
     9     3     4   ar
    10     4     5   ar
    11     5     6   ar
    12     6     7    1
    13     6     8   ar
    14     8     9   ar
    15     9    10   ar
    16    10    11   ar
    17    11    12   ar
    18    12    13    1
    19    13    14    1
    20     1    27    1
    21    27    28    1
    22    27    39    1
    23    39    40    1
    24    40    41    1
    25    41    42    1
    26    41    43    1
    27    27    30    1
    28    30    31   ar
    29    31    32   ar
    30    32    33   ar
    31    33    34   ar
    32    34    35   ar
    33    35    36   ar
    34    36    37   ar
    35    37    38   ar
    36    17    18   ar
    37    18    19   ar
    38    19    24    1
    39    24    25    1
    40    25    26    1
    41    19    20   ar
    42    20    15   ar
    43    12     2   ar
    44    38    30   ar
    45    10     4   ar
    46    38    34   ar
    47    28    29    1
@<TRIPOS>MOLECULE
*****
 43 47 0 0 0
SMALL
GASTEIGER

@<TRIPOS>ATOM
      1 C         140.1257  140.3396  163.1772 C.3     1  UNL1        0.0764
      2 C         139.9462  140.3357  164.6664 C.ar    1  UNL1        0.0181
      3 C         140.3015  141.5527  165.4679 C.ar    1  UNL1       -0.0009
      4 C         140.1220  141.5488  166.9572 C.ar    1  UNL1        0.0004
      5 C         140.4773  142.7659  167.7587 C.ar    1  UNL1        0.0067
      6 C         140.2978  142.7619  169.2478 C.ar    1  UNL1        0.0346
      7 BR        140.6531  143.9790  170.0494 Br      1  UNL1       -0.0490
      8 C         139.7630  141.5408  169.9355 C.ar    1  UNL1        0.0067
      9 C         139.4077  140.3237  169.1341 C.ar    1  UNL1        0.0006
     10 C         139.5872  140.3277  167.6449 C.ar    1  UNL1        0.0030
     11 C         139.2319  139.1106  166.8433 C.ar    1  UNL1        0.0366
     12 C         139.4114  139.1146  165.3541 C.ar    1  UNL1        0.1351
     13 O         139.0560  137.8975  164.5526 O.3     1  UNL1       -0.4717
     14 C         140.1174  136.9005  164.1924 C.3     1  UNL1        0.2525
     15 C         142.9929  139.5177  160.5592 C.ar    1  UNL1        0.2271
     16 C         141.6296  139.7212  161.1509 C.ar    1  UNL1        0.0540
     17 C         141.4890  140.1361  162.5855 C.ar    1  UNL1       -0.0064
     18 C         142.7116  140.3474  163.4285 C.ar    1  UNL1        0.0540
     19 C         144.0748  140.1438  162.8368 C.ar    1  UNL1        0.2271
     20 N         144.2155  139.7289  161.4021 N.ar    1  UNL1       -0.1767
     21 O         143.1335  139.1028  159.1246 O.3     1  UNL1       -0.4602
     22 C         142.6629  137.3897  157.2288 C.3     1  UNL1        0.0512
     23 C         142.6570  137.7502  158.6849 C.3     1  UNL1        0.2072
     24 O         145.2974  140.3551  163.6797 O.3     1  UNL1       -0.4602
     25 C         145.8136  141.7433  163.9178 C.3     1  UNL1        0.2072
     26 C         144.9409  142.7634  164.5871 C.3     1  UNL1        0.0512
     27 C         138.9419  140.5471  162.2796 C.3     1  UNL1        0.1186
     28 O         139.0227  139.1147  161.8419 O.3     1  UNL1       -0.3819
     29 H         138.3621  138.5919  162.3227 H       1  UNL1        0.2107
     30 C         138.8611  141.9796  162.7174 C.ar    1  UNL1        0.0369
     31 C         137.8757  142.3870  163.7723 C.ar    1  UNL1        0.0010
     32 C         137.7949  143.8194  164.2100 C.ar    1  UNL1       -0.0000
     33 C         138.6995  144.8444  163.5928 C.ar    1  UNL1        0.0031
     34 C         139.6850  144.4370  162.5379 C.ar    1  UNL1        0.0375
     35 C         140.6979  145.2187  161.7550 C.ar    1  UNL1        0.0437
     36 C         141.4047  144.2695  160.8334 C.ar    1  UNL1        0.1796
     37 O         140.8286  142.9010  161.0467 O.2     1  UNL1       -0.4507
     38 C         139.7658  143.0046  162.1002 C.ar    1  UNL1        0.1436
     39 C         137.7581  140.7546  161.3821 C.3     1  UNL1        0.0492
     40 C         137.6666  140.0174  160.0789 C.3     1  UNL1        0.0750
     41 N         138.5382  140.4204  158.9265 N.3     1  UNL1       -0.2702
     42 C         138.6115  141.8592  158.5089 C.3     1  UNL1        0.0897
     43 C         139.3363  139.3845  158.1916 C.3     1  UNL1        0.0897
@<TRIPOS>BOND
     1    22    23    1
     2    23    21    1
     3    21    15    1
     4    15    16   ar
     5    16    17   ar
     6     1    17    1
     7     1     2    1
     8     2     3   ar
     9     3     4   ar
    10     4     5   ar
    11     5     6   ar
    12     6     7    1
    13     6     8   ar
    14     8     9   ar
    15     9    10   ar
    16    10    11   ar
    17    11    12   ar
    18    12    13    1
    19    13    14    1
    20     1    27    1
    21    27    28    1
    22    27    39    1
    23    39    40    1
    24    40    41    1
    25    41    42    1
    26    41    43    1
    27    27    30    1
    28    30    31   ar
    29    31    32   ar
    30    32    33   ar
    31    33    34   ar
    32    34    35   ar
    33    35    36   ar
    34    36    37   ar
    35    37    38   ar
    36    17    18   ar
    37    18    19   ar
    38    19    24    1
    39    24    25    1
    40    25    26    1
    41    19    20   ar
    42    20    15   ar
    43    12     2   ar
    44    38    30   ar
    45    10     4   ar
    46    38    34   ar
    47    28    29    1
@<TRIPOS>MOLECULE
*****
 43 47 0 0 0
SMALL
GASTEIGER

@<TRIPOS>ATOM
      1 C         140.4253  141.5987  162.8512 C.3     1  UNL1        0.0764
      2 C         140.4192  142.0022  164.2960 C.ar    1  UNL1        0.0181
      3 C         141.2229  141.2243  165.2953 C.ar    1  UNL1       -0.0009
      4 C         141.2168  141.6278  166.7401 C.ar    1  UNL1        0.0004
      5 C         142.0206  140.8499  167.7395 C.ar    1  UNL1        0.0067
      6 C         142.0145  141.2534  169.1841 C.ar    1  UNL1        0.0346
      7 BR        142.8182  140.4755  170.1836 Br      1  UNL1       -0.0490
      8 C         141.2046  142.4349  169.6294 C.ar    1  UNL1        0.0067
      9 C         140.4008  143.2128  168.6300 C.ar    1  UNL1        0.0006
     10 C         140.4070  142.8092  167.1854 C.ar    1  UNL1        0.0030
     11 C         139.6032  143.5872  166.1859 C.ar    1  UNL1        0.0366
     12 C         139.6093  143.1836  164.7413 C.ar    1  UNL1        0.1351
     13 O         138.8055  143.9616  163.7418 O.3     1  UNL1       -0.4717
     14 C         139.4125  145.1461  163.0500 C.3     1  UNL1        0.2525
     15 C         144.1539  142.0671  161.5754 C.ar    1  UNL1        0.2271
     16 C         142.9899  141.7062  162.4500 C.ar    1  UNL1        0.0540
     17 C         141.5893  141.9595  161.9766 C.ar    1  UNL1       -0.0064
     18 C         141.3526  142.5737  160.6288 C.ar    1  UNL1        0.0540
     19 C         142.5166  142.9345  159.7542 C.ar    1  UNL1        0.2271
     20 N         143.9173  142.6812  160.2275 N.ar    1  UNL1       -0.1767
     21 O         145.5545  141.8138  162.0487 O.3     1  UNL1       -0.4602
     22 C         145.2197  142.5698  164.5117 C.3     1  UNL1        0.0512
     23 C         145.8305  141.6331  163.5120 C.3     1  UNL1        0.2072
     24 O         142.2799  143.5487  158.4063 O.3     1  UNL1       -0.4602
     25 C         141.7737  144.9569  158.3021 C.3     1  UNL1        0.2072
     26 C         140.3204  145.2135  158.0336 C.3     1  UNL1        0.0512
     27 C         139.2674  140.8343  162.2811 C.3     1  UNL1        0.1186
     28 O         138.7686  142.0841  161.6185 O.3     1  UNL1       -0.3819
     29 H         139.0243  142.0782  160.6828 H       1  UNL1        0.2107
     30 C         139.7662  139.5845  162.9438 C.ar    1  UNL1        0.0369
     31 C         140.8806  138.7982  162.3195 C.ar    1  UNL1        0.0010
     32 C         141.3794  137.5483  162.9822 C.ar    1  UNL1       -0.0000
     33 C         140.7638  137.0848  164.2691 C.ar    1  UNL1        0.0031
     34 C         139.6494  137.8711  164.8933 C.ar    1  UNL1        0.0375
     35 C         138.8535  137.6621  166.1475 C.ar    1  UNL1        0.0437
     36 C         137.8629  138.7828  166.2600 C.ar    1  UNL1        0.1796
     37 O         138.0464  139.6845  165.0753 O.2     1  UNL1       -0.4507
     38 C         139.1506  139.1209  164.2307 C.ar    1  UNL1        0.1436
     39 C         138.1095  140.0699  161.7111 C.3     1  UNL1        0.0492
     40 C         137.7001  140.2829  160.2837 C.3     1  UNL1        0.0750
     41 N         138.7096  140.1360  159.1841 N.3     1  UNL1       -0.2702
     42 C         138.9377  141.2623  158.2200 C.3     1  UNL1        0.0897
     43 C         139.4910  138.8628  159.0485 C.3     1  UNL1        0.0897
@<TRIPOS>BOND
     1    22    23    1
     2    23    21    1
     3    21    15    1
     4    15    16   ar
     5    16    17   ar
     6     1    17    1
     7     1     2    1
     8     2     3   ar
     9     3     4   ar
    10     4     5   ar
    11     5     6   ar
    12     6     7    1
    13     6     8   ar
    14     8     9   ar
    15     9    10   ar
    16    10    11   ar
    17    11    12   ar
    18    12    13    1
    19    13    14    1
    20     1    27    1
    21    27    28    1
    22    27    39    1
    23    39    40    1
    24    40    41    1
    25    41    42    1
    26    41    43    1
    27    27    30    1
    28    30    31   ar
    29    31    32   ar
    30    32    33   ar
    31    33    34   ar
    32    34    35   ar
    33    35    36   ar
    34    36    37   ar
    35    37    38   ar
    36    17    18   ar
    37    18    19   ar
    38    19    24    1
    39    24    25    1
    40    25    26    1
    41    19    20   ar
    42    20    15   ar
    43    12     2   ar
    44    38    30   ar
    45    10     4   ar
    46    38    34   ar
    47    28    29    1
@<TRIPOS>MOLECULE
*****
 43 47 0 0 0
SMALL
GASTEIGER

@<TRIPOS>ATOM
      1 C         140.7723  140.2734  162.0578 C.3     1  UNL1        0.0764
      2 C         140.2207  139.9825  163.4221 C.ar    1  UNL1        0.0181
      3 C         140.6411  140.8179  164.5948 C.ar    1  UNL1       -0.0009
      4 C         140.0895  140.5270  165.9591 C.ar    1  UNL1        0.0004
      5 C         140.5098  141.3625  167.1318 C.ar    1  UNL1        0.0067
      6 C         139.9582  141.0715  168.4960 C.ar    1  UNL1        0.0346
      7 BR        140.3785  141.9070  169.6688 Br      1  UNL1       -0.0490
      8 C         138.9862  139.9452  168.6875 C.ar    1  UNL1        0.0067
      9 C         138.5659  139.1098  167.5147 C.ar    1  UNL1        0.0006
     10 C         139.1175  139.4007  166.1506 C.ar    1  UNL1        0.0030
     11 C         138.6972  138.5652  164.9777 C.ar    1  UNL1        0.0366
     12 C         139.2488  138.8562  163.6135 C.ar    1  UNL1        0.1351
     13 O         138.8285  138.0207  162.4407 O.3     1  UNL1       -0.4717
     14 C         137.5974  138.3835  161.6643 C.3     1  UNL1        0.2525
     15 C         139.4141  143.9536  161.4569 C.ar    1  UNL1        0.2271
     16 C         139.7336  142.6535  162.1335 C.ar    1  UNL1        0.0540
     17 C         140.4528  141.5734  161.3812 C.ar    1  UNL1       -0.0064
     18 C         140.8525  141.7933  159.9522 C.ar    1  UNL1        0.0540
     19 C         140.5329  143.0932  159.2756 C.ar    1  UNL1        0.2271
     20 N         139.8137  144.1735  160.0279 N.ar    1  UNL1       -0.1767
     21 O         138.6949  145.0337  162.2092 O.3     1  UNL1       -0.4602
     22 C         137.8732  144.2564  164.5482 C.3     1  UNL1        0.0512
     23 C         138.7876  145.0950  163.7050 C.3     1  UNL1        0.2072
     24 O         140.9326  143.3131  157.8466 O.3     1  UNL1       -0.4602
     25 C         140.8598  144.6877  157.2505 C.3     1  UNL1        0.2072
     26 C         142.0034  145.6424  157.4252 C.3     1  UNL1        0.0512
     27 C         141.6435  139.2643  161.3702 C.3     1  UNL1        0.1186
     28 O         140.5878  139.0663  160.3232 O.3     1  UNL1       -0.3819
     29 H         140.8222  139.5705  159.5283 H       1  UNL1        0.2107
     30 C         142.6992  139.4622  162.4173 C.ar    1  UNL1        0.0369
     31 C         142.7827  138.5242  163.5848 C.ar    1  UNL1        0.0010
     32 C         143.8384  138.7221  164.6319 C.ar    1  UNL1       -0.0000
     33 C         144.8106  139.8581  164.5114 C.ar    1  UNL1        0.0031
     34 C         144.7270  140.7961  163.3439 C.ar    1  UNL1        0.0375
     35 C         145.5412  141.9961  162.9602 C.ar    1  UNL1        0.0437
     36 C         144.9887  142.5398  161.6760 C.ar    1  UNL1        0.1796
     37 O         143.8330  141.6758  161.2660 O.2     1  UNL1       -0.4507
     38 C         143.6713  140.5981  162.2969 C.ar    1  UNL1        0.1436
     39 C         142.5146  138.2551  160.6827 C.3     1  UNL1        0.0492
     40 C         143.3037  138.6484  159.4690 C.3     1  UNL1        0.0750
     41 N         142.7190  138.4594  158.1007 N.3     1  UNL1       -0.2702
     42 C         142.5107  137.0764  157.5585 C.3     1  UNL1        0.0897
     43 C         142.3425  139.6535  157.2745 C.3     1  UNL1        0.0897
@<TRIPOS>BOND
     1    22    23    1
     2    23    21    1
     3    21    15    1
     4    15    16   ar
     5    16    17   ar
     6     1    17    1
     7     1     2    1
     8     2     3   ar
     9     3     4   ar
    10     4     5   ar
    11     5     6   ar
    12     6     7    1
    13     6     8   ar
    14     8     9   ar
    15     9    10   ar
    16    10    11   ar
    17    11    12   ar
    18    12    13    1
    19    13    14    1
    20     1    27    1
    21    27    28    1
    22    27    39    1
    23    39    40    1
    24    40    41    1
    25    41    42    1
    26    41    43    1
    27    27    30    1
    28    30    31   ar
    29    31    32   ar
    30    32    33   ar
    31    33    34   ar
    32    34    35   ar
    33    35    36   ar
    34    36    37   ar
    35    37    38   ar
    36    17    18   ar
    37    18    19   ar
    38    19    24    1
    39    24    25    1
    40    25    26    1
    41    19    20   ar
    42    20    15   ar
    43    12     2   ar
    44    38    30   ar
    45    10     4   ar
    46    38    34   ar
    47    28    29    1
@<TRIPOS>MOLECULE
*****
 43 47 0 0 0
SMALL
GASTEIGER

@<TRIPOS>ATOM
      1 C         142.0784  142.2721  162.7296 C.3     1  UNL1        0.0764
      2 C         142.4418  142.3039  164.1846 C.ar    1  UNL1        0.0181
      3 C         141.6845  141.4587  165.1654 C.ar    1  UNL1       -0.0009
      4 C         142.0478  141.4905  166.6205 C.ar    1  UNL1        0.0004
      5 C         141.2905  140.6453  167.6013 C.ar    1  UNL1        0.0067
      6 C         141.6539  140.6771  169.0562 C.ar    1  UNL1        0.0346
      7 BR        140.8966  139.8319  170.0371 Br      1  UNL1       -0.0490
      8 C         142.7745  141.5543  169.5304 C.ar    1  UNL1        0.0067
      9 C         143.5318  142.3995  168.5496 C.ar    1  UNL1        0.0006
     10 C         143.1685  142.3676  167.0946 C.ar    1  UNL1        0.0030
     11 C         143.9258  143.2129  166.1137 C.ar    1  UNL1        0.0366
     12 C         143.5624  143.1810  164.6588 C.ar    1  UNL1        0.1351
     13 O         144.3197  144.0263  163.6779 O.3     1  UNL1       -0.4717
     14 C         144.0278  145.4937  163.5701 C.3     1  UNL1        0.2525
     15 C         143.2453  139.7246  159.9191 C.ar    1  UNL1        0.2271
     16 C         143.0844  140.9923  160.7048 C.ar    1  UNL1        0.0540
     17 C         142.2393  141.0044  161.9440 C.ar    1  UNL1       -0.0064
     18 C         141.5551  139.7490  162.3976 C.ar    1  UNL1        0.0540
     19 C         141.7160  138.4814  161.6119 C.ar    1  UNL1        0.2271
     20 N         142.5611  138.4692  160.3727 N.ar    1  UNL1       -0.1767
     21 O         144.0903  139.7125  158.6799 O.3     1  UNL1       -0.4602
     22 C         145.0558  140.9860  156.6315 C.3     1  UNL1        0.0512
     23 C         144.4454  141.0023  158.0016 C.3     1  UNL1        0.2072
     24 O         141.0318  137.2260  162.0655 O.3     1  UNL1       -0.4602
     25 C         140.2214  137.2276  163.3279 C.3     1  UNL1        0.2072
     26 C         138.7788  137.6371  163.2925 C.3     1  UNL1        0.0512
     27 C         141.5542  143.5079  162.0603 C.3     1  UNL1        0.1186
     28 O         142.7413  143.5147  161.1433 O.3     1  UNL1       -0.3819
     29 H         142.4892  143.1389  160.2853 H       1  UNL1        0.2107
     30 C         140.3672  143.5010  162.9773 C.ar    1  UNL1        0.0369
     31 C         140.3221  144.4319  164.1526 C.ar    1  UNL1        0.0010
     32 C         139.1350  144.4251  165.0696 C.ar    1  UNL1       -0.0000
     33 C         137.9932  143.4873  164.8113 C.ar    1  UNL1        0.0031
     34 C         138.0383  142.5565  163.6360 C.ar    1  UNL1        0.0375
     35 C         137.0693  141.5283  163.1322 C.ar    1  UNL1        0.0437
     36 C         137.6574  140.8997  161.9038 C.ar    1  UNL1        0.1796
     37 O         138.9900  141.5394  161.6484 O.2     1  UNL1       -0.4507
     38 C         139.2253  142.5633  162.7190 C.ar    1  UNL1        0.1436
     39 C         141.0300  144.7437  161.3910 C.3     1  UNL1        0.0492
     40 C         141.4317  145.0606  159.9809 C.3     1  UNL1        0.0750
     41 N         140.4977  144.7535  158.8480 N.3     1  UNL1       -0.2702
     42 C         140.2557  145.7757  157.7773 C.3     1  UNL1        0.0897
     43 C         139.8058  143.4240  158.7858 C.3     1  UNL1        0.0897
@<TRIPOS>BOND
     1    22    23    1
     2    23    21    1
     3    21    15    1
     4    15    16   ar
     5    16    17   ar
     6     1    17    1
     7     1     2    1
     8     2     3   ar
     9     3     4   ar
    10     4     5   ar
    11     5     6   ar
    12     6     7    1
    13     6     8   ar
    14     8     9   ar
    15     9    10   ar
    16    10    11   ar
    17    11    12   ar
    18    12    13    1
    19    13    14    1
    20     1    27    1
    21    27    28    1
    22    27    39    1
    23    39    40    1
    24    40    41    1
    25    41    42    1
    26    41    43    1
    27    27    30    1
    28    30    31   ar
    29    31    32   ar
    30    32    33   ar
    31    33    34   ar
    32    34    35   ar
    33    35    36   ar
    34    36    37   ar
    35    37    38   ar
    36    17    18   ar
    37    18    19   ar
    38    19    24    1
    39    24    25    1
    40    25    26    1
    41    19    20   ar
    42    20    15   ar
    43    12     2   ar
    44    38    30   ar
    45    10     4   ar
    46    38    34   ar
    47    28    29    1
