@<TRIPOS>MOLECULE
*****
 29 33 0 0 0
SMALL
GASTEIGER

@<TRIPOS>ATOM
      1 C         138.7791  137.5413  165.3113 C.3     1  UNL1        0.1063
      2 N         139.4911  137.6895  163.9994 N.3     1  UNL1       -0.2704
      3 C         140.9792  137.5149  163.9297 C.3     1  UNL1        0.0723
      4 C         141.6910  137.6631  162.6178 C.3     1  UNL1        0.0207
      5 C         140.9148  137.9859  161.3755 C.3     1  UNL1        0.0391
      6 C         139.4266  138.1605  161.4452 C.3     1  UNL1        0.0207
      7 C         138.7147  138.0123  162.7571 C.3     1  UNL1        0.0723
      8 C         142.3426  137.8876  160.9264 C.3     1  UNL1        0.0929
      9 N         141.9215  138.1955  159.5201 N.pl3   1  UNL1       -0.3014
     10 C         140.4936  138.2937  159.9691 C.3     1  UNL1        0.0929
     11 C         142.6334  138.3437  158.2081 C.ar    1  UNL1        0.0978
     12 C         142.7457  137.2940  157.1425 C.ar    1  UNL1        0.0440
     13 C         143.5397  137.8691  156.0072 C.ar    1  UNL1        0.1092
     14 N         143.9181  139.2742  156.3712 N.ar    1  UNL1       -0.2064
     15 S         143.3580  139.5675  157.7315 S.2     1  UNL1        0.0279
     16 C         138.4426  138.7567  166.1235 C.3     1  UNL1        0.1483
     17 O         137.7842  138.6051  167.4627 O.3     1  UNL1       -0.3786
     18 H         137.6371  139.4814  167.8517 H       1  UNL1        0.2108
     19 C         141.1250  139.9827  166.6732 C.3     1  UNL1        0.0306
     20 C         140.1059  140.7367  165.8713 C.ar    1  UNL1       -0.0238
     21 C         138.7646  140.1237  165.5965 C.ar    1  UNL1        0.0015
     22 C         137.7456  140.8776  164.7947 C.ar    1  UNL1       -0.0020
     23 C         138.0675  142.2445  164.2677 C.ar    1  UNL1        0.0060
     24 C         139.4087  142.8576  164.5425 C.ar    1  UNL1        0.0748
     25 C         140.4278  142.1037  165.3443 C.ar    1  UNL1        0.0233
     26 C         141.6560  142.9579  165.4536 C.3     1  UNL1        0.2352
     27 O         141.3958  144.2397  164.7194 O.3     1  UNL1       -0.4404
     28 C         140.0069  144.1777  164.1562 C.2     1  UNL1        0.3413
     29 O         139.3344  145.2480  163.3486 O.2     1  UNL1       -0.2449
@<TRIPOS>BOND
     1    19    20    1
     2    20    21   ar
     3    21    16    1
     4    16    17    1
     5    16     1    1
     6     1     2    1
     7     2     3    1
     8     3     4    1
     9     4     5    1
    10     5     6    1
    11     6     7    1
    12     5     8    1
    13     8     9    1
    14     9    11    1
    15    11    12   ar
    16    12    13   ar
    17    13    14   ar
    18    14    15   ar
    19     9    10    1
    20    21    22   ar
    21    22    23   ar
    22    23    24   ar
    23    24    25   ar
    24    25    26    1
    25    26    27    1
    26    27    28    1
    27    28    29    2
    28    25    20   ar
    29     7     2    1
    30    15    11   ar
    31    28    24    1
    32    10     5    1
    33    17    18    1
@<TRIPOS>MOLECULE
*****
 29 33 0 0 0
SMALL
GASTEIGER

@<TRIPOS>ATOM
      1 C         145.4572  142.3761  164.1775 C.3     1  UNL1        0.1063
      2 N         144.8395  141.5748  163.0700 N.3     1  UNL1       -0.2704
      3 C         144.7775  142.1381  161.6812 C.3     1  UNL1        0.0723
      4 C         144.1598  141.3367  160.5739 C.3     1  UNL1        0.0207
      5 C         143.6042  139.9721  160.8553 C.3     1  UNL1        0.0391
      6 C         143.6663  139.4088  162.2442 C.3     1  UNL1        0.0207
      7 C         144.2839  140.2102  163.3516 C.3     1  UNL1        0.0723
      8 C         143.3689  140.1925  159.3903 C.3     1  UNL1        0.0929
      9 N         142.7307  138.8388  159.2892 N.pl3   1  UNL1       -0.3014
     10 C         142.9660  138.6184  160.7542 C.3     1  UNL1        0.0929
     11 C         142.1130  138.0374  158.1818 C.ar    1  UNL1        0.0978
     12 C         142.7777  136.9312  157.4174 C.ar    1  UNL1        0.0440
     13 C         141.7978  136.4116  156.4075 C.ar    1  UNL1        0.1092
     14 N         140.5275  137.1969  156.5478 N.ar    1  UNL1       -0.2064
     15 S         140.7223  138.2017  157.6444 S.2     1  UNL1        0.0279
     16 C         144.6345  143.3859  164.9214 C.3     1  UNL1        0.1483
     17 O         145.2266  144.1256  166.0843 O.3     1  UNL1       -0.3786
     18 H         144.5666  144.7356  166.4494 H       1  UNL1        0.2108
     19 C         142.3782  141.8738  166.1954 C.3     1  UNL1        0.0306
     20 C         142.0915  142.9000  165.1395 C.ar    1  UNL1       -0.0238
     21 C         143.2197  143.6561  164.5025 C.ar    1  UNL1        0.0015
     22 C         142.9330  144.6822  163.4467 C.ar    1  UNL1       -0.0020
     23 C         141.5183  144.9524  163.0278 C.ar    1  UNL1        0.0060
     24 C         140.3902  144.1963  163.6648 C.ar    1  UNL1        0.0748
     25 C         140.6768  143.1701  164.7206 C.ar    1  UNL1        0.0233
     26 C         139.3691  142.5862  165.1666 C.3     1  UNL1        0.2352
     27 O         138.2743  143.2515  164.3864 O.3     1  UNL1       -0.4404
     28 C         138.9053  144.2466  163.4582 C.2     1  UNL1        0.3413
     29 O         138.1790  145.1358  162.4930 O.2     1  UNL1       -0.2449
@<TRIPOS>BOND
     1    19    20    1
     2    20    21   ar
     3    21    16    1
     4    16    17    1
     5    16     1    1
     6     1     2    1
     7     2     3    1
     8     3     4    1
     9     4     5    1
    10     5     6    1
    11     6     7    1
    12     5     8    1
    13     8     9    1
    14     9    11    1
    15    11    12   ar
    16    12    13   ar
    17    13    14   ar
    18    14    15   ar
    19     9    10    1
    20    21    22   ar
    21    22    23   ar
    22    23    24   ar
    23    24    25   ar
    24    25    26    1
    25    26    27    1
    26    27    28    1
    27    28    29    2
    28    25    20   ar
    29     7     2    1
    30    15    11   ar
    31    28    24    1
    32    10     5    1
    33    17    18    1
@<TRIPOS>MOLECULE
*****
 29 33 0 0 0
SMALL
GASTEIGER

@<TRIPOS>ATOM
      1 C         145.4355  142.1519  164.3566 C.3     1  UNL1        0.1063
      2 N         144.8007  141.4005  163.2243 N.3     1  UNL1       -0.2704
      3 C         144.2296  140.0333  163.4582 C.3     1  UNL1        0.0723
      4 C         143.5948  139.2819  162.3258 C.3     1  UNL1        0.0207
      5 C         143.5310  139.8977  160.9595 C.3     1  UNL1        0.0391
      6 C         144.1020  141.2649  160.7256 C.3     1  UNL1        0.0207
      7 C         144.7369  142.0163  161.8579 C.3     1  UNL1        0.0723
      8 C         142.8750  138.5568  160.8120 C.3     1  UNL1        0.0929
      9 N         142.6331  138.8351  159.3580 N.pl3   1  UNL1       -0.3014
     10 C         143.2891  140.1759  159.5055 C.3     1  UNL1        0.0929
     11 C         141.9983  138.0836  158.2256 C.ar    1  UNL1        0.0978
     12 C         140.5718  138.2039  157.7777 C.ar    1  UNL1        0.0440
     13 C         140.3702  137.2746  156.6176 C.ar    1  UNL1        0.1092
     14 N         141.6722  136.5800  156.3485 N.ar    1  UNL1       -0.2064
     15 S         142.6784  137.0800  157.3423 S.2     1  UNL1        0.0279
     16 C         144.6377  143.1614  165.1275 C.3     1  UNL1        0.1483
     17 O         145.3222  144.0707  166.1045 O.3     1  UNL1       -0.3786
     18 H         144.6671  144.6574  166.5139 H       1  UNL1        0.2108
     19 C         143.5217  145.2006  163.2309 C.3     1  UNL1        0.0306
     20 C         142.5973  144.2813  163.9729 C.ar    1  UNL1       -0.0238
     21 C         143.1552  143.2617  164.9212 C.ar    1  UNL1        0.0015
     22 C         142.2309  142.3426  165.6632 C.ar    1  UNL1       -0.0020
     23 C         140.7486  142.4428  165.4570 C.ar    1  UNL1        0.0060
     24 C         140.1906  143.4624  164.5087 C.ar    1  UNL1        0.0748
     25 C         141.1149  144.3816  163.7667 C.ar    1  UNL1        0.0233
     26 C         140.2802  145.2806  162.9035 C.3     1  UNL1        0.2352
     27 O         138.8400  144.9169  163.1120 O.3     1  UNL1       -0.4404
     28 C         138.7846  143.7932  164.1041 C.2     1  UNL1        0.3413
     29 O         137.5414  143.1188  164.6038 O.2     1  UNL1       -0.2449
@<TRIPOS>BOND
     1    19    20    1
     2    20    21   ar
     3    21    16    1
     4    16    17    1
     5    16     1    1
     6     1     2    1
     7     2     3    1
     8     3     4    1
     9     4     5    1
    10     5     6    1
    11     6     7    1
    12     5     8    1
    13     8     9    1
    14     9    11    1
    15    11    12   ar
    16    12    13   ar
    17    13    14   ar
    18    14    15   ar
    19     9    10    1
    20    21    22   ar
    21    22    23   ar
    22    23    24   ar
    23    24    25   ar
    24    25    26    1
    25    26    27    1
    26    27    28    1
    27    28    29    2
    28    25    20   ar
    29     7     2    1
    30    15    11   ar
    31    28    24    1
    32    10     5    1
    33    17    18    1
@<TRIPOS>MOLECULE
*****
 29 33 0 0 0
SMALL
GASTEIGER

@<TRIPOS>ATOM
      1 C         139.4106  138.2889  165.2269 C.3     1  UNL1        0.1063
      2 N         140.0184  138.2469  163.8562 N.3     1  UNL1       -0.2704
      3 C         141.4792  137.9481  163.6924 C.3     1  UNL1        0.0723
      4 C         142.0870  137.9061  162.3217 C.3     1  UNL1        0.0207
      5 C         141.2340  138.1629  161.1149 C.3     1  UNL1        0.0391
      6 C         139.7732  138.4617  161.2787 C.3     1  UNL1        0.0207
      7 C         139.1654  138.5037  162.6493 C.3     1  UNL1        0.0723
      8 C         142.6084  137.9064  160.5714 C.3     1  UNL1        0.0929
      9 N         142.0936  138.1035  159.1764 N.pl3   1  UNL1       -0.3014
     10 C         140.7192  138.3600  159.7198 C.3     1  UNL1        0.0929
     11 C         142.7014  138.0614  157.8057 C.ar    1  UNL1        0.0978
     12 C         142.9154  136.8320  156.9735 C.ar    1  UNL1        0.0440
     13 C         143.5483  137.2521  155.6800 C.ar    1  UNL1        0.1092
     14 N         143.7253  138.7412  155.7128 N.ar    1  UNL1       -0.2064
     15 S         143.2019  139.2414  157.0266 S.2     1  UNL1        0.0279
     16 C         138.9442  139.5940  165.8008 C.3     1  UNL1        0.1483
     17 O         137.7669  140.3008  165.1971 O.3     1  UNL1       -0.3786
     18 H         137.5993  141.1231  165.6835 H       1  UNL1        0.2108
     19 C         141.4337  141.2156  165.3847 C.3     1  UNL1        0.0306
     20 C         140.9000  141.0031  166.7703 C.ar    1  UNL1       -0.0238
     21 C         139.6552  140.1923  166.9784 C.ar    1  UNL1        0.0015
     22 C         139.1214  139.9797  168.3639 C.ar    1  UNL1       -0.0020
     23 C         139.8323  140.5779  169.5415 C.ar    1  UNL1        0.0060
     24 C         141.0771  141.3887  169.3335 C.ar    1  UNL1        0.0748
     25 C         141.6109  141.6013  167.9479 C.ar    1  UNL1        0.0233
     26 C         142.8497  142.4407  168.0521 C.3     1  UNL1        0.2352
     27 O         143.0815  142.7468  169.5021 O.3     1  UNL1       -0.4404
     28 C         141.9859  142.0967  170.2940 C.2     1  UNL1        0.3413
     29 O         141.8272  142.1460  171.7848 O.2     1  UNL1       -0.2449
@<TRIPOS>BOND
     1    19    20    1
     2    20    21   ar
     3    21    16    1
     4    16    17    1
     5    16     1    1
     6     1     2    1
     7     2     3    1
     8     3     4    1
     9     4     5    1
    10     5     6    1
    11     6     7    1
    12     5     8    1
    13     8     9    1
    14     9    11    1
    15    11    12   ar
    16    12    13   ar
    17    13    14   ar
    18    14    15   ar
    19     9    10    1
    20    21    22   ar
    21    22    23   ar
    22    23    24   ar
    23    24    25   ar
    24    25    26    1
    25    26    27    1
    26    27    28    1
    27    28    29    2
    28    25    20   ar
    29     7     2    1
    30    15    11   ar
    31    28    24    1
    32    10     5    1
    33    17    18    1
@<TRIPOS>MOLECULE
*****
 29 33 0 0 0
SMALL
GASTEIGER

@<TRIPOS>ATOM
      1 C         139.6590  137.9637  161.6341 C.3     1  UNL1        0.1063
      2 N         139.7899  138.4914  163.0320 N.3     1  UNL1       -0.2704
      3 C         138.5614  138.7746  163.8449 C.3     1  UNL1        0.0723
      4 C         138.6924  139.3023  165.2428 C.3     1  UNL1        0.0207
      5 C         140.0518  139.5468  165.8280 C.3     1  UNL1        0.0391
      6 C         141.2802  139.2635  165.0151 C.3     1  UNL1        0.0207
      7 C         141.1493  138.7358  163.6172 C.3     1  UNL1        0.0723
      8 C         139.0879  139.9358  166.9095 C.3     1  UNL1        0.0929
      9 N         140.2370  140.2931  167.8050 N.pl3   1  UNL1       -0.3014
     10 C         141.2009  139.9041  166.7235 C.3     1  UNL1        0.0929
     11 C         140.3679  140.8208  169.2030 C.ar    1  UNL1        0.0978
     12 C         140.3358  142.2650  169.6068 C.ar    1  UNL1        0.0440
     13 C         140.5020  142.3338  171.0960 C.ar    1  UNL1        0.1092
     14 N         140.6367  140.9320  171.6126 N.ar    1  UNL1       -0.2064
     15 S         140.5539  139.9969  170.4426 S.2     1  UNL1        0.0279
     16 C         139.6411  138.9128  160.4727 C.3     1  UNL1        0.1483
     17 O         139.6260  138.3816  159.0700 O.3     1  UNL1       -0.3786
     18 H         139.6154  139.1223  158.4438 H       1  UNL1        0.2108
     19 C         142.2253  140.4367  160.4773 C.3     1  UNL1        0.0306
     20 C         140.9304  141.1553  160.7164 C.ar    1  UNL1       -0.0238
     21 C         139.6383  140.3934  160.7141 C.ar    1  UNL1        0.0015
     22 C         138.3435  141.1118  160.9532 C.ar    1  UNL1       -0.0020
     23 C         138.3407  142.5923  161.1945 C.ar    1  UNL1        0.0060
     24 C         139.6328  143.3542  161.1968 C.ar    1  UNL1        0.0748
     25 C         140.9276  142.6358  160.9577 C.ar    1  UNL1        0.0233
     26 C         142.0357  143.6450  161.0176 C.3     1  UNL1        0.2352
     27 O         141.4257  144.9872  161.2937 O.3     1  UNL1       -0.4404
     28 C         139.9406  144.8076  161.4045 C.2     1  UNL1        0.3413
     29 O         138.9392  145.8910  161.6753 O.2     1  UNL1       -0.2449
@<TRIPOS>BOND
     1    19    20    1
     2    20    21   ar
     3    21    16    1
     4    16    17    1
     5    16     1    1
     6     1     2    1
     7     2     3    1
     8     3     4    1
     9     4     5    1
    10     5     6    1
    11     6     7    1
    12     5     8    1
    13     8     9    1
    14     9    11    1
    15    11    12   ar
    16    12    13   ar
    17    13    14   ar
    18    14    15   ar
    19     9    10    1
    20    21    22   ar
    21    22    23   ar
    22    23    24   ar
    23    24    25   ar
    24    25    26    1
    25    26    27    1
    26    27    28    1
    27    28    29    2
    28    25    20   ar
    29     7     2    1
    30    15    11   ar
    31    28    24    1
    32    10     5    1
    33    17    18    1
@<TRIPOS>MOLECULE
*****
 29 33 0 0 0
SMALL
GASTEIGER

@<TRIPOS>ATOM
      1 C         143.1100  138.8298  166.5371 C.3     1  UNL1        0.1063
      2 N         143.0379  138.6939  165.0450 N.3     1  UNL1       -0.2704
      3 C         144.1413  139.2400  164.1880 C.3     1  UNL1        0.0723
      4 C         144.0692  139.1041  162.6960 C.3     1  UNL1        0.0207
      5 C         142.8939  138.4221  162.0609 C.3     1  UNL1        0.0391
      6 C         141.7905  137.8760  162.9178 C.3     1  UNL1        0.0207
      7 C         141.8625  138.0119  164.4099 C.3     1  UNL1        0.0723
      8 C         143.7732  138.8274  160.9152 C.3     1  UNL1        0.0929
      9 N         142.7919  138.2299  159.9507 N.pl3   1  UNL1       -0.3014
     10 C         141.9126  137.8246  161.0964 C.3     1  UNL1        0.0929
     11 C         142.7199  138.0940  158.4586 C.ar    1  UNL1        0.0978
     12 C         142.8158  136.8129  157.6844 C.ar    1  UNL1        0.0440
     13 C         142.6945  137.1425  156.2260 C.ar    1  UNL1        0.1092
     14 N         142.5237  138.6273  156.0990 N.ar    1  UNL1       -0.2064
     15 S         142.5394  139.2154  157.4788 S.2     1  UNL1        0.0279
     16 C         142.5321  140.0402  167.2087 C.3     1  UNL1        0.1483
     17 O         142.8631  140.3322  168.6423 O.3     1  UNL1       -0.3786
     18 H         142.4111  141.1444  168.9195 H       1  UNL1        0.2108
     19 C         143.6454  142.4880  165.8786 C.3     1  UNL1        0.0306
     20 C         142.1800  142.1826  165.7816 C.ar    1  UNL1       -0.0238
     21 C         141.6233  140.9587  166.4467 C.ar    1  UNL1        0.0015
     22 C         140.1580  140.6532  166.3497 C.ar    1  UNL1       -0.0020
     23 C         139.2493  141.5716  165.5877 C.ar    1  UNL1        0.0060
     24 C         139.8058  142.7955  164.9227 C.ar    1  UNL1        0.0748
     25 C         141.2712  143.1010  165.0196 C.ar    1  UNL1        0.0233
     26 C         141.5307  144.3717  164.2661 C.3     1  UNL1        0.2352
     27 O         140.2257  144.8516  163.7033 O.3     1  UNL1       -0.4404
     28 C         139.1597  143.8775  164.1091 C.2     1  UNL1        0.3413
     29 O         137.7032  143.9692  163.7623 O.2     1  UNL1       -0.2449
@<TRIPOS>BOND
     1    19    20    1
     2    20    21   ar
     3    21    16    1
     4    16    17    1
     5    16     1    1
     6     1     2    1
     7     2     3    1
     8     3     4    1
     9     4     5    1
    10     5     6    1
    11     6     7    1
    12     5     8    1
    13     8     9    1
    14     9    11    1
    15    11    12   ar
    16    12    13   ar
    17    13    14   ar
    18    14    15   ar
    19     9    10    1
    20    21    22   ar
    21    22    23   ar
    22    23    24   ar
    23    24    25   ar
    24    25    26    1
    25    26    27    1
    26    27    28    1
    27    28    29    2
    28    25    20   ar
    29     7     2    1
    30    15    11   ar
    31    28    24    1
    32    10     5    1
    33    17    18    1
@<TRIPOS>MOLECULE
*****
 29 33 0 0 0
SMALL
GASTEIGER

@<TRIPOS>ATOM
      1 C         144.5133  139.7090  162.2322 C.3     1  UNL1        0.1063
      2 N         143.9035  140.1200  163.5395 N.3     1  UNL1       -0.2704
      3 C         144.3145  141.4094  164.1864 C.3     1  UNL1        0.0723
      4 C         143.7046  141.8203  165.4937 C.3     1  UNL1        0.0207
      5 C         142.6838  140.9419  166.1542 C.3     1  UNL1        0.0391
      6 C         142.2727  139.6525  165.5073 C.3     1  UNL1        0.0207
      7 C         142.8826  139.2415  164.2000 C.3     1  UNL1        0.0723
      8 C         142.8371  142.1176  167.0731 C.3     1  UNL1        0.0929
      9 N         141.8213  141.5231  168.0031 N.pl3   1  UNL1       -0.3014
     10 C         141.6680  140.3475  167.0842 C.3     1  UNL1        0.0929
     11 C         141.2115  141.9341  169.3105 C.ar    1  UNL1        0.0978
     12 C         140.1344  142.9614  169.4967 C.ar    1  UNL1        0.0440
     13 C         139.8289  143.0522  170.9624 C.ar    1  UNL1        0.1092
     14 N         140.7172  142.0811  171.6821 N.ar    1  UNL1       -0.2064
     15 S         141.5717  141.3901  170.6611 S.2     1  UNL1        0.0279
     16 C         143.8524  140.0949  160.9421 C.3     1  UNL1        0.1483
     17 O         144.1925  139.3639  159.6772 O.3     1  UNL1       -0.3786
     18 H         143.6809  139.7354  158.9416 H       1  UNL1        0.2108
     19 C         140.9182  139.4827  161.0677 C.3     1  UNL1        0.0306
     20 C         141.3843  140.9057  160.9797 C.ar    1  UNL1       -0.0238
     21 C         142.8515  141.2119  160.9170 C.ar    1  UNL1        0.0015
     22 C         143.3176  142.6348  160.8290 C.ar    1  UNL1       -0.0020
     23 C         142.3167  143.7518  160.8039 C.ar    1  UNL1        0.0060
     24 C         140.8496  143.4457  160.8666 C.ar    1  UNL1        0.0748
     25 C         140.3834  142.0227  160.9546 C.ar    1  UNL1        0.0233
     26 C         138.8842  142.0281  161.0024 C.3     1  UNL1        0.2352
     27 O         138.4238  143.4545  160.9440 O.3     1  UNL1       -0.4404
     28 C         139.6385  144.3306  160.8601 C.2     1  UNL1        0.3413
     29 O         139.6415  145.8287  160.7832 O.2     1  UNL1       -0.2449
@<TRIPOS>BOND
     1    19    20    1
     2    20    21   ar
     3    21    16    1
     4    16    17    1
     5    16     1    1
     6     1     2    1
     7     2     3    1
     8     3     4    1
     9     4     5    1
    10     5     6    1
    11     6     7    1
    12     5     8    1
    13     8     9    1
    14     9    11    1
    15    11    12   ar
    16    12    13   ar
    17    13    14   ar
    18    14    15   ar
    19     9    10    1
    20    21    22   ar
    21    22    23   ar
    22    23    24   ar
    23    24    25   ar
    24    25    26    1
    25    26    27    1
    26    27    28    1
    27    28    29    2
    28    25    20   ar
    29     7     2    1
    30    15    11   ar
    31    28    24    1
    32    10     5    1
    33    17    18    1
@<TRIPOS>MOLECULE
*****
 29 33 0 0 0
SMALL
GASTEIGER

@<TRIPOS>ATOM
      1 C         144.9158  143.1770  162.1785 C.3     1  UNL1        0.1063
      2 N         144.4312  142.0831  161.2739 N.3     1  UNL1       -0.2704
      3 C         144.2594  140.6911  161.8057 C.3     1  UNL1        0.0723
      4 C         143.7748  139.5971  160.9010 C.3     1  UNL1        0.0207
      5 C         143.4621  139.8952  159.4645 C.3     1  UNL1        0.0391
      6 C         143.6340  141.2871  158.9327 C.3     1  UNL1        0.0207
      7 C         144.1186  142.3811  159.8374 C.3     1  UNL1        0.0723
      8 C         143.1770  138.4316  159.6283 C.3     1  UNL1        0.0929
      9 N         142.7769  138.3481  158.1851 N.pl3   1  UNL1       -0.3014
     10 C         143.0620  139.8116  158.0213 C.3     1  UNL1        0.0929
     11 C         142.2924  137.2541  157.2805 C.ar    1  UNL1        0.0978
     12 C         143.0084  135.9685  156.9897 C.ar    1  UNL1        0.0440
     13 C         142.1653  135.1734  156.0373 C.ar    1  UNL1        0.1092
     14 N         140.9282  135.9676  155.7394 N.ar    1  UNL1       -0.2064
     15 S         141.0067  137.2535  156.5077 S.2     1  UNL1        0.0279
     16 C         143.9377  143.9446  163.0177 C.3     1  UNL1        0.1483
     17 O         143.6316  145.3765  162.6919 O.3     1  UNL1       -0.3786
     18 H         142.9848  145.7215  163.3272 H       1  UNL1        0.2108
     19 C         141.1108  142.9727  162.7642 C.3     1  UNL1        0.0306
     20 C         141.8522  142.7944  164.0559 C.ar    1  UNL1       -0.0238
     21 C         143.2657  143.2803  164.1827 C.ar    1  UNL1        0.0015
     22 C         144.0070  143.1019  165.4743 C.ar    1  UNL1       -0.0020
     23 C         143.3350  142.4377  166.6393 C.ar    1  UNL1        0.0060
     24 C         141.9216  141.9517  166.5126 C.ar    1  UNL1        0.0748
     25 C         141.1802  142.1301  165.2209 C.ar    1  UNL1        0.0233
     26 C         139.8059  141.5536  165.3917 C.3     1  UNL1        0.2352
     27 O         139.6981  141.0190  166.7891 O.3     1  UNL1       -0.4404
     28 C         141.0056  141.2650  167.4818 C.2     1  UNL1        0.3413
     29 O         141.3386  140.8902  168.8955 O.2     1  UNL1       -0.2449
@<TRIPOS>BOND
     1    19    20    1
     2    20    21   ar
     3    21    16    1
     4    16    17    1
     5    16     1    1
     6     1     2    1
     7     2     3    1
     8     3     4    1
     9     4     5    1
    10     5     6    1
    11     6     7    1
    12     5     8    1
    13     8     9    1
    14     9    11    1
    15    11    12   ar
    16    12    13   ar
    17    13    14   ar
    18    14    15   ar
    19     9    10    1
    20    21    22   ar
    21    22    23   ar
    22    23    24   ar
    23    24    25   ar
    24    25    26    1
    25    26    27    1
    26    27    28    1
    27    28    29    2
    28    25    20   ar
    29     7     2    1
    30    15    11   ar
    31    28    24    1
    32    10     5    1
    33    17    18    1
@<TRIPOS>MOLECULE
*****
 29 33 0 0 0
SMALL
GASTEIGER

@<TRIPOS>ATOM
      1 C         142.7666  140.4630  165.5568 C.3     1  UNL1        0.1063
      2 N         142.7200  140.0237  164.1234 N.3     1  UNL1       -0.2704
      3 C         143.9168  140.2174  163.2402 C.3     1  UNL1        0.0723
      4 C         143.8701  139.7781  161.8068 C.3     1  UNL1        0.0207
      5 C         142.6265  139.1451  161.2565 C.3     1  UNL1        0.0391
      6 C         141.4296  138.9514  162.1397 C.3     1  UNL1        0.0207
      7 C         141.4763  139.3906  163.5731 C.3     1  UNL1        0.0723
      8 C         143.5898  139.1720  160.1069 C.3     1  UNL1        0.0929
      9 N         142.5604  138.5238  159.2293 N.pl3   1  UNL1       -0.3014
     10 C         141.5971  138.4969  160.3788 C.3     1  UNL1        0.0929
     11 C         142.5137  138.0845  157.7958 C.ar    1  UNL1        0.0978
     12 C         142.1618  138.9473  156.6203 C.ar    1  UNL1        0.0440
     13 C         142.2413  138.1014  155.3841 C.ar    1  UNL1        0.1092
     14 N         142.6424  136.7158  155.7956 N.ar    1  UNL1       -0.2064
     15 S         142.8107  136.7054  157.2861 S.2     1  UNL1        0.0279
     16 C         142.5924  141.9120  165.9033 C.3     1  UNL1        0.1483
     17 O         143.2231  142.4671  167.1459 O.3     1  UNL1       -0.3786
     18 H         143.0144  143.4115  167.2202 H       1  UNL1        0.2108
     19 C         139.6067  141.6375  165.8003 C.3     1  UNL1        0.0306
     20 C         140.2947  142.6687  164.9555 C.ar    1  UNL1       -0.0238
     21 C         141.7875  142.8059  165.0070 C.ar    1  UNL1        0.0015
     22 C         142.4755  143.8369  164.1623 C.ar    1  UNL1       -0.0020
     23 C         141.6707  144.7308  163.2661 C.ar    1  UNL1        0.0060
     24 C         140.1778  144.5936  163.2146 C.ar    1  UNL1        0.0748
     25 C         139.4898  143.5626  164.0593 C.ar    1  UNL1        0.0233
     26 C         138.0156  143.6594  163.8000 C.3     1  UNL1        0.2352
     27 O         137.7925  144.7503  162.7950 O.3     1  UNL1       -0.4404
     28 C         139.1288  145.3277  162.4332 C.2     1  UNL1        0.3413
     29 O         139.3731  146.4433  161.4607 O.2     1  UNL1       -0.2449
@<TRIPOS>BOND
     1    19    20    1
     2    20    21   ar
     3    21    16    1
     4    16    17    1
     5    16     1    1
     6     1     2    1
     7     2     3    1
     8     3     4    1
     9     4     5    1
    10     5     6    1
    11     6     7    1
    12     5     8    1
    13     8     9    1
    14     9    11    1
    15    11    12   ar
    16    12    13   ar
    17    13    14   ar
    18    14    15   ar
    19     9    10    1
    20    21    22   ar
    21    22    23   ar
    22    23    24   ar
    23    24    25   ar
    24    25    26    1
    25    26    27    1
    26    27    28    1
    27    28    29    2
    28    25    20   ar
    29     7     2    1
    30    15    11   ar
    31    28    24    1
    32    10     5    1
    33    17    18    1
