@<TRIPOS>MOLECULE
*****
 33 36 0 0 0
SMALL
GASTEIGER

@<TRIPOS>ATOM
      1 N         138.4700  140.4913  161.6604 N.3     1  UNL1       -0.2673
      2 C         138.1989  141.1599  162.9755 C.3     1  UNL1        0.1035
      3 C         138.9635  142.3909  163.3627 C.3     1  UNL1        0.1470
      4 C         139.7282  143.6219  163.7499 C.3     1  UNL1        0.1035
      5 N         140.7639  144.1844  162.8221 N.3     1  UNL1       -0.2682
      6 C         141.0350  143.5157  161.5069 C.3     1  UNL1        0.1035
      7 C         140.2703  142.2847  161.1197 C.3     1  UNL1        0.1470
      8 C         139.5057  141.0537  160.7325 C.3     1  UNL1        0.1035
      9 O         139.9992  142.9533  162.4348 O.3     1  UNL1       -0.3530
     10 C         137.7054  139.2602  161.2732 C.3     1  UNL1        0.0913
     11 C         138.0403  137.9404  161.9023 C.3     1  UNL1        0.1087
     12 N         139.4685  137.5933  162.2020 N.3     1  UNL1       -0.1780
     13 H         139.5313  136.5753  162.1976 H       1  UNL1        0.1488
     14 S         140.1018  138.0606  163.4789 S.O2    1  UNL1        0.0603
     15 O         141.3245  138.4812  162.7186 O.2     1  UNL1       -0.1530
     16 O         138.8792  137.6401  164.2393 O.2     1  UNL1       -0.1530
     17 C         142.0018  139.4626  167.3097 C.ar    1  UNL1        0.0685
     18 C         142.7865  138.6210  166.3475 C.ar    1  UNL1        0.0116
     19 C         142.1532  138.1536  165.0705 C.ar    1  UNL1        0.0206
     20 C         140.7351  138.5279  164.7558 C.ar    1  UNL1        0.1220
     21 C         139.9504  139.3696  165.7181 C.ar    1  UNL1        0.0206
     22 C         140.5837  139.8369  166.9949 C.ar    1  UNL1        0.0116
     23 N         143.2684  140.3972  169.8635 N.1     1  UNL1       -0.1908
     24 C         142.6351  139.9299  168.5865 C.1     1  UNL1        0.1004
     25 C         141.5285  145.4153  163.2092 C.3     1  UNL1        0.0769
     26 C         142.9212  145.2932  163.7531 C.3     1  UNL1        0.0437
     27 C         143.5612  143.9425  163.8794 C.ar    1  UNL1       -0.0206
     28 C         143.2449  143.0699  165.0577 C.ar    1  UNL1       -0.0019
     29 C         143.8850  141.7192  165.1840 C.ar    1  UNL1        0.0293
     30 C         144.8413  141.2411  164.1320 C.ar    1  UNL1        0.1401
     31 F         145.4813  139.8904  164.2582 F       1  UNL1       -0.2042
     32 C         145.1575  142.1137  162.9536 C.ar    1  UNL1        0.0293
     33 C         144.5175  143.4644  162.8273 C.ar    1  UNL1       -0.0019
@<TRIPOS>BOND
     1    23    24    3
     2    24    17    1
     3    17    18   ar
     4    18    19   ar
     5    19    20   ar
     6    20    14    1
     7    14    15    2
     8    14    16    2
     9    14    12    1
    10    12    11    1
    11    11    10    1
    12    10     1    1
    13     1     2    1
    14     2     3    1
    15     3     4    1
    16     4     5    1
    17     5    25    1
    18    25    26    1
    19    26    27    1
    20    27    28   ar
    21    28    29   ar
    22    29    30   ar
    23    30    31    1
    24    30    32   ar
    25    32    33   ar
    26     5     6    1
    27     6     7    1
    28     7     8    1
    29     7     9    1
    30    20    21   ar
    31    21    22   ar
    32    22    17   ar
    33     8     1    1
    34     9     3    1
    35    33    27   ar
    36    12    13    1
@<TRIPOS>MOLECULE
*****
 33 36 0 0 0
SMALL
GASTEIGER

@<TRIPOS>ATOM
      1 N         139.2549  143.9498  161.0571 N.3     1  UNL1       -0.2673
      2 C         139.7830  142.9345  160.0875 C.3     1  UNL1        0.1035
      3 C         139.4127  141.4889  160.2393 C.3     1  UNL1        0.1470
      4 C         139.0424  140.0433  160.3911 C.3     1  UNL1        0.1035
      5 N         138.1440  139.6130  161.5126 N.3     1  UNL1       -0.2682
      6 C         137.6159  140.6283  162.4823 C.3     1  UNL1        0.1035
      7 C         137.9862  142.0739  162.3305 C.3     1  UNL1        0.1470
      8 C         138.3565  143.5195  162.1786 C.3     1  UNL1        0.1035
      9 O         138.5143  141.0586  161.3608 O.3     1  UNL1       -0.3530
     10 C         139.6252  145.3955  160.9053 C.3     1  UNL1        0.0913
     11 C         139.9986  146.2047  162.1118 C.3     1  UNL1        0.1087
     12 N         141.3574  146.0493  162.7280 N.3     1  UNL1       -0.1780
     13 H         142.0153  145.9149  161.9602 H       1  UNL1        0.1488
     14 S         141.6121  144.9483  163.7143 S.O2    1  UNL1        0.0603
     15 O         142.9780  144.7411  163.1301 O.2     1  UNL1       -0.1530
     16 O         140.2462  145.1555  164.2984 O.2     1  UNL1       -0.1530
     17 C         142.3764  141.6451  166.6731 C.ar    1  UNL1        0.0685
     18 C         140.9839  142.1657  166.4734 C.ar    1  UNL1        0.0116
     19 C         140.7291  143.2668  165.4871 C.ar    1  UNL1        0.0206
     20 C         141.8669  143.8472  164.7005 C.ar    1  UNL1        0.1220
     21 C         143.2594  143.3266  164.9003 C.ar    1  UNL1        0.0206
     22 C         143.5141  142.2255  165.8866 C.ar    1  UNL1        0.0116
     23 N         142.8859  139.4429  168.6457 N.1     1  UNL1       -0.1908
     24 C         142.6311  140.5440  167.6594 C.1     1  UNL1        0.1004
     25 C         137.7737  138.1674  161.6645 C.3     1  UNL1        0.0769
     26 C         138.3438  137.3617  162.7941 C.3     1  UNL1        0.0437
     27 C         139.6926  137.7045  163.3538 C.ar    1  UNL1       -0.0206
     28 C         140.9084  137.6316  162.4784 C.ar    1  UNL1       -0.0019
     29 C         142.2573  137.9745  163.0381 C.ar    1  UNL1        0.0293
     30 C         142.3902  138.3902  164.4732 C.ar    1  UNL1        0.1401
     31 F         143.7389  138.7330  165.0329 F       1  UNL1       -0.2042
     32 C         141.1742  138.4631  165.3486 C.ar    1  UNL1        0.0293
     33 C         139.8255  138.1203  164.7889 C.ar    1  UNL1       -0.0019
@<TRIPOS>BOND
     1    23    24    3
     2    24    17    1
     3    17    18   ar
     4    18    19   ar
     5    19    20   ar
     6    20    14    1
     7    14    15    2
     8    14    16    2
     9    14    12    1
    10    12    11    1
    11    11    10    1
    12    10     1    1
    13     1     2    1
    14     2     3    1
    15     3     4    1
    16     4     5    1
    17     5    25    1
    18    25    26    1
    19    26    27    1
    20    27    28   ar
    21    28    29   ar
    22    29    30   ar
    23    30    31    1
    24    30    32   ar
    25    32    33   ar
    26     5     6    1
    27     6     7    1
    28     7     8    1
    29     7     9    1
    30    20    21   ar
    31    21    22   ar
    32    22    17   ar
    33     8     1    1
    34     9     3    1
    35    33    27   ar
    36    12    13    1
@<TRIPOS>MOLECULE
*****
 33 36 0 0 0
SMALL
GASTEIGER

@<TRIPOS>ATOM
      1 N         140.9350  140.5359  159.1137 N.3     1  UNL1       -0.2673
      2 C         141.0707  142.0116  158.8818 C.3     1  UNL1        0.1035
      3 C         140.4658  142.9820  159.8526 C.3     1  UNL1        0.1470
      4 C         139.8608  143.9525  160.8233 C.3     1  UNL1        0.1035
      5 N         139.1202  143.4472  162.0258 N.3     1  UNL1       -0.2682
      6 C         138.9845  141.9713  162.2576 C.3     1  UNL1        0.1035
      7 C         139.5895  141.0010  161.2869 C.3     1  UNL1        0.1470
      8 C         140.1944  140.0306  160.3162 C.3     1  UNL1        0.1035
      9 O         139.7252  142.4767  161.0551 O.3     1  UNL1       -0.3530
     10 C         141.5400  139.5654  158.1429 C.3     1  UNL1        0.0913
     11 C         142.4791  138.5027  158.6316 C.3     1  UNL1        0.1087
     12 N         143.6674  138.8781  159.4665 N.3     1  UNL1       -0.1780
     13 H         144.4120  138.2221  159.2308 H       1  UNL1        0.1488
     14 S         143.5591  138.8907  160.9625 S.O2    1  UNL1        0.0603
     15 O         143.1806  137.4393  160.9474 O.2     1  UNL1       -0.1530
     16 O         143.9375  140.3421  160.9777 O.2     1  UNL1       -0.1530
     17 C         143.2341  138.9285  165.4506 C.ar    1  UNL1        0.0685
     18 C         142.2222  138.1833  164.6317 C.ar    1  UNL1        0.0116
     19 C         142.3305  138.1707  163.1356 C.ar    1  UNL1        0.0206
     20 C         143.4507  138.9033  162.4585 C.ar    1  UNL1        0.1220
     21 C         144.4626  139.6486  163.2776 C.ar    1  UNL1        0.0206
     22 C         144.3543  139.6612  164.7736 C.ar    1  UNL1        0.0116
     23 N         143.0174  138.9538  168.4427 N.1     1  UNL1       -0.1908
     24 C         143.1258  138.9411  166.9466 C.1     1  UNL1        0.1004
     25 C         138.5153  144.4176  162.9965 C.3     1  UNL1        0.0769
     26 C         139.3036  144.8775  164.1870 C.3     1  UNL1        0.0437
     27 C         140.7233  144.4276  164.3657 C.ar    1  UNL1       -0.0206
     28 C         141.0206  143.1636  165.1165 C.ar    1  UNL1       -0.0019
     29 C         142.4404  142.7136  165.2953 C.ar    1  UNL1        0.0293
     30 C         143.5628  143.5279  164.7232 C.ar    1  UNL1        0.1401
     31 F         144.9825  143.0780  164.9020 F       1  UNL1       -0.2042
     32 C         143.2654  144.7920  163.9724 C.ar    1  UNL1        0.0293
     33 C         141.8457  145.2418  163.7937 C.ar    1  UNL1       -0.0019
@<TRIPOS>BOND
     1    23    24    3
     2    24    17    1
     3    17    18   ar
     4    18    19   ar
     5    19    20   ar
     6    20    14    1
     7    14    15    2
     8    14    16    2
     9    14    12    1
    10    12    11    1
    11    11    10    1
    12    10     1    1
    13     1     2    1
    14     2     3    1
    15     3     4    1
    16     4     5    1
    17     5    25    1
    18    25    26    1
    19    26    27    1
    20    27    28   ar
    21    28    29   ar
    22    29    30   ar
    23    30    31    1
    24    30    32   ar
    25    32    33   ar
    26     5     6    1
    27     6     7    1
    28     7     8    1
    29     7     9    1
    30    20    21   ar
    31    21    22   ar
    32    22    17   ar
    33     8     1    1
    34     9     3    1
    35    33    27   ar
    36    12    13    1
@<TRIPOS>MOLECULE
*****
 33 36 0 0 0
SMALL
GASTEIGER

@<TRIPOS>ATOM
      1 N         140.7182  144.1661  160.4062 N.3     1  UNL1       -0.2673
      2 C         139.6582  143.1186  160.2356 C.3     1  UNL1        0.1035
      3 C         140.0434  141.6734  160.1216 C.3     1  UNL1        0.1470
      4 C         140.4286  140.2282  160.0076 C.3     1  UNL1        0.1035
      5 N         141.8738  139.8305  160.0642 N.3     1  UNL1       -0.2682
      6 C         142.9339  140.8780  160.2347 C.3     1  UNL1        0.1035
      7 C         142.5486  142.3232  160.3487 C.3     1  UNL1        0.1470
      8 C         142.1634  143.7684  160.4627 C.3     1  UNL1        0.1035
      9 O         141.4886  141.2757  160.1782 O.3     1  UNL1       -0.3530
     10 C         140.3331  145.6113  160.5202 C.3     1  UNL1        0.0913
     11 C         139.7388  146.1308  161.7957 C.3     1  UNL1        0.1087
     12 N         140.3171  145.7158  163.1161 N.3     1  UNL1       -0.1780
     13 H         141.3286  145.6694  162.9931 H       1  UNL1        0.1488
     14 S         139.8976  144.4201  163.7446 S.O2    1  UNL1        0.0603
     15 O         141.3297  144.1139  164.0693 O.2     1  UNL1       -0.1530
     16 O         138.4656  144.7262  163.4200 O.2     1  UNL1       -0.1530
     17 C         138.6390  140.5328  165.6302 C.ar    1  UNL1        0.0685
     18 C         139.7094  141.3654  166.2712 C.ar    1  UNL1        0.0116
     19 C         140.1290  142.6612  165.6427 C.ar    1  UNL1        0.0206
     20 C         139.4781  143.1243  164.3732 C.ar    1  UNL1        0.1220
     21 C         138.4076  142.2917  163.7321 C.ar    1  UNL1        0.0206
     22 C         137.9881  140.9960  164.3606 C.ar    1  UNL1        0.0116
     23 N         137.7999  137.9413  166.8872 N.1     1  UNL1       -0.1908
     24 C         138.2195  139.2371  166.2587 C.1     1  UNL1        0.1004
     25 C         142.2590  138.3853  159.9502 C.3     1  UNL1        0.0769
     26 C         143.0792  137.7404  161.0279 C.3     1  UNL1        0.0437
     27 C         142.7993  138.0483  162.4690 C.ar    1  UNL1       -0.0206
     28 C         141.5360  137.5546  163.1097 C.ar    1  UNL1       -0.0019
     29 C         141.2560  137.8625  164.5508 C.ar    1  UNL1        0.0293
     30 C         142.2393  138.6639  165.3513 C.ar    1  UNL1        0.1401
     31 F         141.9594  138.9718  166.7924 F       1  UNL1       -0.2042
     32 C         143.5027  139.1575  164.7106 C.ar    1  UNL1        0.0293
     33 C         143.7826  138.8497  163.2695 C.ar    1  UNL1       -0.0019
@<TRIPOS>BOND
     1    23    24    3
     2    24    17    1
     3    17    18   ar
     4    18    19   ar
     5    19    20   ar
     6    20    14    1
     7    14    15    2
     8    14    16    2
     9    14    12    1
    10    12    11    1
    11    11    10    1
    12    10     1    1
    13     1     2    1
    14     2     3    1
    15     3     4    1
    16     4     5    1
    17     5    25    1
    18    25    26    1
    19    26    27    1
    20    27    28   ar
    21    28    29   ar
    22    29    30   ar
    23    30    31    1
    24    30    32   ar
    25    32    33   ar
    26     5     6    1
    27     6     7    1
    28     7     8    1
    29     7     9    1
    30    20    21   ar
    31    21    22   ar
    32    22    17   ar
    33     8     1    1
    34     9     3    1
    35    33    27   ar
    36    12    13    1
@<TRIPOS>MOLECULE
*****
 33 36 0 0 0
SMALL
GASTEIGER

@<TRIPOS>ATOM
      1 N         142.7565  141.1979  159.8922 N.3     1  UNL1       -0.2673
      2 C         141.3000  141.4309  159.6198 C.3     1  UNL1        0.1035
      3 C         140.5392  142.4429  160.4240 C.3     1  UNL1        0.1470
      4 C         139.7783  143.4550  161.2283 C.3     1  UNL1        0.1035
      5 N         140.4739  144.2341  162.3049 N.3     1  UNL1       -0.2682
      6 C         141.9305  144.0011  162.5772 C.3     1  UNL1        0.1035
      7 C         142.6914  142.9890  161.7730 C.3     1  UNL1        0.1470
      8 C         143.4522  141.9770  160.9688 C.3     1  UNL1        0.1035
      9 O         141.2349  143.2220  161.5006 O.3     1  UNL1       -0.3530
     10 C         143.5174  140.1858  159.0879 C.3     1  UNL1        0.0913
     11 C         142.8651  138.8920  158.7001 C.3     1  UNL1        0.1087
     12 N         142.8587  137.7383  159.6587 N.3     1  UNL1       -0.1780
     13 H         142.0201  137.1935  159.4582 H       1  UNL1        0.1488
     14 S         142.8673  137.9916  161.1371 S.O2    1  UNL1        0.0603
     15 O         144.3519  137.7790  161.1650 O.2     1  UNL1       -0.1530
     16 O         141.3828  138.2042  161.1093 O.2     1  UNL1       -0.1530
     17 C         142.8931  138.7515  165.5724 C.ar    1  UNL1        0.0685
     18 C         141.7678  137.9791  164.9504 C.ar    1  UNL1        0.0116
     19 C         141.7592  137.7257  163.4719 C.ar    1  UNL1        0.0206
     20 C         142.8759  138.2449  162.6155 C.ar    1  UNL1        0.1220
     21 C         144.0013  139.0174  163.2376 C.ar    1  UNL1        0.0206
     22 C         144.0099  139.2706  164.7160 C.ar    1  UNL1        0.0116
     23 N         142.9103  139.2581  168.5293 N.1     1  UNL1       -0.1908
     24 C         142.9017  139.0048  167.0508 C.1     1  UNL1        0.1004
     25 C         139.7131  145.2462  163.1091 C.3     1  UNL1        0.0769
     26 C         139.1897  144.8847  164.4676 C.3     1  UNL1        0.0437
     27 C         139.1850  143.4524  164.9129 C.ar    1  UNL1       -0.0206
     28 C         140.2464  142.9544  165.8485 C.ar    1  UNL1       -0.0019
     29 C         140.2418  141.5220  166.2938 C.ar    1  UNL1        0.0293
     30 C         139.1757  140.5876  165.8035 C.ar    1  UNL1        0.1401
     31 F         139.1710  139.1553  166.2488 F       1  UNL1       -0.2042
     32 C         138.1142  141.0857  164.8678 C.ar    1  UNL1        0.0293
     33 C         138.1189  142.5180  164.4226 C.ar    1  UNL1       -0.0019
@<TRIPOS>BOND
     1    23    24    3
     2    24    17    1
     3    17    18   ar
     4    18    19   ar
     5    19    20   ar
     6    20    14    1
     7    14    15    2
     8    14    16    2
     9    14    12    1
    10    12    11    1
    11    11    10    1
    12    10     1    1
    13     1     2    1
    14     2     3    1
    15     3     4    1
    16     4     5    1
    17     5    25    1
    18    25    26    1
    19    26    27    1
    20    27    28   ar
    21    28    29   ar
    22    29    30   ar
    23    30    31    1
    24    30    32   ar
    25    32    33   ar
    26     5     6    1
    27     6     7    1
    28     7     8    1
    29     7     9    1
    30    20    21   ar
    31    21    22   ar
    32    22    17   ar
    33     8     1    1
    34     9     3    1
    35    33    27   ar
    36    12    13    1
@<TRIPOS>MOLECULE
*****
 33 36 0 0 0
SMALL
GASTEIGER

@<TRIPOS>ATOM
      1 N         142.4026  139.1334  159.3685 N.3     1  UNL1       -0.2673
      2 C         142.9317  140.5187  159.1425 C.3     1  UNL1        0.1035
      3 C         143.7517  141.1907  160.2036 C.3     1  UNL1        0.1470
      4 C         144.5718  141.8628  161.2647 C.3     1  UNL1        0.1035
      5 N         144.8627  141.1495  162.5518 N.3     1  UNL1       -0.2682
      6 C         144.3335  139.7642  162.7778 C.3     1  UNL1        0.1035
      7 C         143.5135  139.0922  161.7168 C.3     1  UNL1        0.1470
      8 C         142.6935  138.4202  160.6557 C.3     1  UNL1        0.1035
      9 O         144.0426  140.4775  161.4907 O.3     1  UNL1       -0.3530
     10 C         141.5825  138.4613  158.3074 C.3     1  UNL1        0.0913
     11 C         140.1032  138.2977  158.4941 C.3     1  UNL1        0.1087
     12 N         139.3119  139.3669  159.1875 N.3     1  UNL1       -0.1780
     13 H         139.7904  140.2499  159.0090 H       1  UNL1        0.1488
     14 S         139.0833  139.2898  160.6679 S.O2    1  UNL1        0.0603
     15 O         138.9823  137.7962  160.5746 O.2     1  UNL1       -0.1530
     16 O         139.1844  140.7835  160.7613 O.2     1  UNL1       -0.1530
     17 C         138.3975  139.0586  165.1093 C.ar    1  UNL1        0.0685
     18 C         138.9276  137.8665  164.3693 C.ar    1  UNL1        0.0116
     19 C         139.1563  137.9435  162.8888 C.ar    1  UNL1        0.0206
     20 C         138.8547  139.2128  162.1484 C.ar    1  UNL1        0.1220
     21 C         138.3245  140.4049  162.8885 C.ar    1  UNL1        0.0206
     22 C         138.0959  140.3278  164.3689 C.ar    1  UNL1        0.0116
     23 N         137.9403  138.9044  168.0703 N.1     1  UNL1       -0.1908
     24 C         138.1689  138.9815  166.5898 C.1     1  UNL1        0.1004
     25 C         145.6827  141.8216  163.6129 C.3     1  UNL1        0.0769
     26 C         145.0056  142.5000  164.7667 C.3     1  UNL1        0.0437
     27 C         143.6819  143.1767  164.5671 C.ar    1  UNL1       -0.0206
     28 C         142.4147  142.4756  164.9577 C.ar    1  UNL1       -0.0019
     29 C         141.0909  143.1523  164.7581 C.ar    1  UNL1        0.0293
     30 C         141.0344  144.5301  164.1678 C.ar    1  UNL1        0.1401
     31 F         139.7107  145.2068  163.9682 F       1  UNL1       -0.2042
     32 C         142.3017  145.2312  163.7772 C.ar    1  UNL1        0.0293
     33 C         143.6254  144.5545  163.9768 C.ar    1  UNL1       -0.0019
@<TRIPOS>BOND
     1    23    24    3
     2    24    17    1
     3    17    18   ar
     4    18    19   ar
     5    19    20   ar
     6    20    14    1
     7    14    15    2
     8    14    16    2
     9    14    12    1
    10    12    11    1
    11    11    10    1
    12    10     1    1
    13     1     2    1
    14     2     3    1
    15     3     4    1
    16     4     5    1
    17     5    25    1
    18    25    26    1
    19    26    27    1
    20    27    28   ar
    21    28    29   ar
    22    29    30   ar
    23    30    31    1
    24    30    32   ar
    25    32    33   ar
    26     5     6    1
    27     6     7    1
    28     7     8    1
    29     7     9    1
    30    20    21   ar
    31    21    22   ar
    32    22    17   ar
    33     8     1    1
    34     9     3    1
    35    33    27   ar
    36    12    13    1
@<TRIPOS>MOLECULE
*****
 33 36 0 0 0
SMALL
GASTEIGER

@<TRIPOS>ATOM
      1 N         139.8716  138.4064  162.6735 N.3     1  UNL1       -0.2673
      2 C         141.2772  137.8977  162.5489 C.3     1  UNL1        0.1035
      3 C         142.2993  138.6953  161.7946 C.3     1  UNL1        0.1470
      4 C         143.3215  139.4929  161.0402 C.3     1  UNL1        0.1035
      5 N         142.9381  140.7992  160.4106 N.3     1  UNL1       -0.2682
      6 C         141.5324  141.3079  160.5352 C.3     1  UNL1        0.1035
      7 C         140.5103  140.5103  161.2896 C.3     1  UNL1        0.1470
      8 C         139.4882  139.7127  162.0439 C.3     1  UNL1        0.1035
      9 O         141.9159  140.0016  161.1649 O.3     1  UNL1       -0.3530
     10 C         138.8494  137.6088  163.4279 C.3     1  UNL1        0.0913
     11 C         138.7971  137.6814  164.9252 C.3     1  UNL1        0.1087
     12 N         138.2010  138.8827  165.5974 N.3     1  UNL1       -0.1780
     13 H         137.8689  139.5002  164.8566 H       1  UNL1        0.1488
     14 S         139.0393  139.7209  166.5164 S.O2    1  UNL1        0.0603
     15 O         138.4449  139.0172  167.7003 O.2     1  UNL1       -0.1530
     16 O         139.6336  140.4245  165.3326 O.2     1  UNL1       -0.1530
     17 C         141.5542  142.2356  169.2736 C.ar    1  UNL1        0.0685
     18 C         140.7146  141.1238  169.8294 C.ar    1  UNL1        0.0116
     19 C         139.8762  140.2855  168.9103 C.ar    1  UNL1        0.0206
     20 C         139.8776  140.5591  167.4355 C.ar    1  UNL1        0.1220
     21 C         140.7172  141.6709  166.8797 C.ar    1  UNL1        0.0206
     22 C         141.5555  142.5091  167.7987 C.ar    1  UNL1        0.0116
     23 N         143.2307  143.9120  171.1117 N.1     1  UNL1       -0.1908
     24 C         142.3924  143.0738  170.1926 C.1     1  UNL1        0.1004
     25 C         143.9602  141.5968  159.6562 C.3     1  UNL1        0.0769
     26 C         144.8205  142.5897  160.3803 C.3     1  UNL1        0.0437
     27 C         144.6865  142.7562  161.8650 C.ar    1  UNL1       -0.0206
     28 C         143.7892  143.8212  162.4222 C.ar    1  UNL1       -0.0019
     29 C         143.6551  143.9877  163.9070 C.ar    1  UNL1        0.0293
     30 C         144.4184  143.0892  164.8344 C.ar    1  UNL1        0.1401
     31 F         144.2843  143.2557  166.3191 F       1  UNL1       -0.2042
     32 C         145.3157  142.0241  164.2771 C.ar    1  UNL1        0.0293
     33 C         145.4497  141.8576  162.7924 C.ar    1  UNL1       -0.0019
@<TRIPOS>BOND
     1    23    24    3
     2    24    17    1
     3    17    18   ar
     4    18    19   ar
     5    19    20   ar
     6    20    14    1
     7    14    15    2
     8    14    16    2
     9    14    12    1
    10    12    11    1
    11    11    10    1
    12    10     1    1
    13     1     2    1
    14     2     3    1
    15     3     4    1
    16     4     5    1
    17     5    25    1
    18    25    26    1
    19    26    27    1
    20    27    28   ar
    21    28    29   ar
    22    29    30   ar
    23    30    31    1
    24    30    32   ar
    25    32    33   ar
    26     5     6    1
    27     6     7    1
    28     7     8    1
    29     7     9    1
    30    20    21   ar
    31    21    22   ar
    32    22    17   ar
    33     8     1    1
    34     9     3    1
    35    33    27   ar
    36    12    13    1
@<TRIPOS>MOLECULE
*****
 33 36 0 0 0
SMALL
GASTEIGER

@<TRIPOS>ATOM
      1 N         138.3002  141.8912  160.2843 N.3     1  UNL1       -0.2673
      2 C         138.5006  140.4118  160.4289 C.3     1  UNL1        0.1035
      3 C         138.4691  139.7801  161.7890 C.3     1  UNL1        0.1470
      4 C         138.4376  139.1484  163.1492 C.3     1  UNL1        0.1035
      5 N         138.2057  139.9962  164.3647 N.3     1  UNL1       -0.2682
      6 C         138.0053  141.4758  164.2200 C.3     1  UNL1        0.1035
      7 C         138.0368  142.1074  162.8599 C.3     1  UNL1        0.1470
      8 C         138.0683  142.7391  161.4998 C.3     1  UNL1        0.1035
      9 O         138.2372  140.6279  163.0045 O.3     1  UNL1       -0.3530
     10 C         138.3317  142.5230  158.9241 C.3     1  UNL1        0.0913
     11 C         139.6461  142.8397  158.2745 C.3     1  UNL1        0.1087
     12 N         140.3982  144.0766  158.6675 N.3     1  UNL1       -0.1780
     13 H         141.0397  144.2866  157.9027 H       1  UNL1        0.1488
     14 S         141.2091  144.0921  159.9293 S.O2    1  UNL1        0.0603
     15 O         141.8898  142.8238  159.5076 O.2     1  UNL1       -0.1530
     16 O         140.5284  145.3604  160.3511 O.2     1  UNL1       -0.1530
     17 C         143.6416  144.1388  163.7149 C.ar    1  UNL1        0.0685
     18 C         144.1510  143.4132  162.5050 C.ar    1  UNL1        0.0116
     19 C         143.3402  143.3976  161.2431 C.ar    1  UNL1        0.0206
     20 C         142.0199  144.1076  161.1912 C.ar    1  UNL1        0.1220
     21 C         141.5104  144.8332  162.4012 C.ar    1  UNL1        0.0206
     22 C         142.3213  144.8488  163.6630 C.ar    1  UNL1        0.0116
     23 N         145.2633  144.1699  166.2387 N.1     1  UNL1       -0.1908
     24 C         144.4524  144.1543  164.9768 C.1     1  UNL1        0.1004
     25 C         138.1742  139.3646  165.7248 C.3     1  UNL1        0.0769
     26 C         139.4150  139.3357  166.5673 C.3     1  UNL1        0.0437
     27 C         139.7319  140.4867  167.4753 C.ar    1  UNL1       -0.0206
     28 C         139.4574  140.3793  168.9461 C.ar    1  UNL1       -0.0019
     29 C         139.7743  141.5304  169.8542 C.ar    1  UNL1        0.0293
     30 C         140.3659  142.7888  169.2916 C.ar    1  UNL1        0.1401
     31 F         140.6828  143.9398  170.1996 F       1  UNL1       -0.2042
     32 C         140.6404  142.8961  167.8208 C.ar    1  UNL1        0.0293
     33 C         140.3235  141.7451  166.9127 C.ar    1  UNL1       -0.0019
@<TRIPOS>BOND
     1    23    24    3
     2    24    17    1
     3    17    18   ar
     4    18    19   ar
     5    19    20   ar
     6    20    14    1
     7    14    15    2
     8    14    16    2
     9    14    12    1
    10    12    11    1
    11    11    10    1
    12    10     1    1
    13     1     2    1
    14     2     3    1
    15     3     4    1
    16     4     5    1
    17     5    25    1
    18    25    26    1
    19    26    27    1
    20    27    28   ar
    21    28    29   ar
    22    29    30   ar
    23    30    31    1
    24    30    32   ar
    25    32    33   ar
    26     5     6    1
    27     6     7    1
    28     7     8    1
    29     7     9    1
    30    20    21   ar
    31    21    22   ar
    32    22    17   ar
    33     8     1    1
    34     9     3    1
    35    33    27   ar
    36    12    13    1
@<TRIPOS>MOLECULE
*****
 33 36 0 0 0
SMALL
GASTEIGER

@<TRIPOS>ATOM
      1 N         139.7487  142.7622  159.8418 N.3     1  UNL1       -0.2673
      2 C         140.4204  141.4765  159.4604 C.3     1  UNL1        0.1035
      3 C         140.0995  140.2136  160.2034 C.3     1  UNL1        0.1470
      4 C         139.7786  138.9506  160.9464 C.3     1  UNL1        0.1035
      5 N         138.7860  138.9734  162.0708 N.3     1  UNL1       -0.2682
      6 C         138.1143  140.2593  162.4521 C.3     1  UNL1        0.1035
      7 C         138.4352  141.5222  161.7092 C.3     1  UNL1        0.1470
      8 C         138.7561  142.7851  160.9662 C.3     1  UNL1        0.1035
      9 O         139.1069  140.2364  161.3278 O.3     1  UNL1       -0.3530
     10 C         140.0696  144.0252  159.0988 C.3     1  UNL1        0.0913
     11 C         141.3754  144.7240  159.3365 C.3     1  UNL1        0.1087
     12 N         141.5726  145.5433  160.5775 N.3     1  UNL1       -0.1780
     13 H         142.3673  146.1580  160.4013 H       1  UNL1        0.1488
     14 S         141.8322  144.8656  161.8902 S.O2    1  UNL1        0.0603
     15 O         143.0918  144.2706  161.3339 O.2     1  UNL1       -0.1530
     16 O         140.5727  145.4606  162.4465 O.2     1  UNL1       -0.1530
     17 C         142.6111  142.8324  165.8284 C.ar    1  UNL1        0.0685
     18 C         141.2020  143.0510  165.3630 C.ar    1  UNL1        0.0116
     19 C         140.9423  143.7287  164.0502 C.ar    1  UNL1        0.0206
     20 C         142.0918  144.1879  163.2029 C.ar    1  UNL1        0.1220
     21 C         143.5010  143.9692  163.6684 C.ar    1  UNL1        0.0206
     22 C         143.7605  143.2915  164.9811 C.ar    1  UNL1        0.0116
     23 N         143.1302  141.4769  168.4539 N.1     1  UNL1       -0.1908
     24 C         142.8706  142.1547  167.1411 C.1     1  UNL1        0.1004
     25 C         138.4651  137.7105  162.8137 C.3     1  UNL1        0.0769
     26 C         139.2850  137.3122  164.0050 C.3     1  UNL1        0.0437
     27 C         139.2163  138.1203  165.2669 C.ar    1  UNL1       -0.0206
     28 C         140.3555  139.0201  165.6441 C.ar    1  UNL1       -0.0019
     29 C         140.2869  139.8283  166.9060 C.ar    1  UNL1        0.0293
     30 C         139.0789  139.7365  167.7906 C.ar    1  UNL1        0.1401
     31 F         139.0102  140.5445  169.0524 F       1  UNL1       -0.2042
     32 C         137.9397  138.8366  167.4133 C.ar    1  UNL1        0.0293
     33 C         138.0084  138.0285  166.1514 C.ar    1  UNL1       -0.0019
@<TRIPOS>BOND
     1    23    24    3
     2    24    17    1
     3    17    18   ar
     4    18    19   ar
     5    19    20   ar
     6    20    14    1
     7    14    15    2
     8    14    16    2
     9    14    12    1
    10    12    11    1
    11    11    10    1
    12    10     1    1
    13     1     2    1
    14     2     3    1
    15     3     4    1
    16     4     5    1
    17     5    25    1
    18    25    26    1
    19    26    27    1
    20    27    28   ar
    21    28    29   ar
    22    29    30   ar
    23    30    31    1
    24    30    32   ar
    25    32    33   ar
    26     5     6    1
    27     6     7    1
    28     7     8    1
    29     7     9    1
    30    20    21   ar
    31    21    22   ar
    32    22    17   ar
    33     8     1    1
    34     9     3    1
    35    33    27   ar
    36    12    13    1
