@<TRIPOS>MOLECULE
*****
 41 44 0 0 0
SMALL
GASTEIGER

@<TRIPOS>ATOM
      1 C         138.9427  140.7387  161.2031 C.3     1  UNL1        0.0331
      2 C         137.6410  139.9933  161.2006 C.3     1  UNL1        0.0201
      3 C         137.8466  138.6988  161.9300 C.3     1  UNL1        0.0722
      4 N         139.2754  138.6441  162.3833 N.3     1  UNL1       -0.2726
      5 C         139.9528  139.9048  161.9341 C.3     1  UNL1        0.0735
      6 C         139.1907  142.0820  160.5835 C.3     1  UNL1        0.0702
      7 N         139.5906  142.1803  159.1412 N.3     1  UNL1       -0.2937
      8 H         139.4541  141.2551  158.7340 H       1  UNL1        0.1236
      9 C         140.9794  142.6136  158.7758 C.3     1  UNL1        0.0958
     10 C         143.8365  143.1651  161.4744 C.ar    1  UNL1        0.1752
     11 C         142.6946  143.4428  160.5423 C.ar    1  UNL1        0.0373
     12 C         142.1213  142.3359  159.7080 C.ar    1  UNL1       -0.0001
     13 C         142.6899  140.9513  159.8057 C.ar    1  UNL1        0.0373
     14 C         143.8318  140.6737  160.7379 C.ar    1  UNL1        0.1752
     15 C         144.4051  141.7806  161.5722 C.ar    1  UNL1        0.2060
     16 C         144.0011  144.4178  163.7446 C.3     1  UNL1        0.2526
     17 O         144.4098  144.2720  162.3088 O.3     1  UNL1       -0.4683
     18 O         144.4005  139.2890  160.8357 O.3     1  UNL1       -0.4683
     19 C         143.6460  138.2182  161.5664 C.3     1  UNL1        0.2526
     20 O         145.5471  141.5028  162.5044 O.3     1  UNL1       -0.4654
     21 C         145.2938  140.8309  163.8213 C.3     1  UNL1        0.2528
     22 C         139.9146  137.5252  163.1511 C.3     1  UNL1        0.0721
     23 C         139.9772  137.5831  164.6486 C.3     1  UNL1        0.0173
     24 C         138.7126  137.6859  165.4487 C.3     1  UNL1        0.0014
     25 C         138.3489  138.9804  166.1135 C.3     1  UNL1        0.0007
     26 C         138.2324  140.2349  165.2994 C.3     1  UNL1        0.0087
     27 C         139.2405  141.3331  165.4655 C.3     1  UNL1        0.0446
     28 C         139.1776  142.5479  164.5879 C.ar    1  UNL1       -0.0183
     29 C         137.8530  143.0462  164.0909 C.ar    1  UNL1       -0.0017
     30 C         137.7900  144.2610  163.2132 C.ar    1  UNL1        0.0293
     31 C         139.0517  144.9775  162.8326 C.ar    1  UNL1        0.1401
     32 F         138.9888  146.1923  161.9549 F       1  UNL1       -0.2042
     33 C         140.3763  144.4791  163.3296 C.ar    1  UNL1        0.0293
     34 C         140.4393  143.2643  164.2073 C.ar    1  UNL1       -0.0017
     35 C         140.3116  141.2165  166.5093 C.ar    1  UNL1       -0.0183
     36 C         140.1875  141.9724  167.7989 C.ar    1  UNL1       -0.0017
     37 C         141.2585  141.8558  168.8426 C.ar    1  UNL1        0.0293
     38 C         142.4535  140.9831  168.5967 C.ar    1  UNL1        0.1401
     39 F         143.5245  140.8664  169.6404 F       1  UNL1       -0.2042
     40 C         142.5775  140.2271  167.3071 C.ar    1  UNL1        0.0293
     41 C         141.5065  140.3438  166.2633 C.ar    1  UNL1       -0.0017
@<TRIPOS>BOND
     1    16    17    1
     2    17    10    1
     3    10    11   ar
     4    11    12   ar
     5    12     9    1
     6     9     7    1
     7     7     6    1
     8     6     1    1
     9     1     2    1
    10     2     3    1
    11     3     4    1
    12     4    22    1
    13    22    23    1
    14    23    24    1
    15    24    25    1
    16    25    26    1
    17    26    27    1
    18    27    28    1
    19    28    29   ar
    20    29    30   ar
    21    30    31   ar
    22    31    32    1
    23    31    33   ar
    24    33    34   ar
    25    27    35    1
    26    35    36   ar
    27    36    37   ar
    28    37    38   ar
    29    38    39    1
    30    38    40   ar
    31    40    41   ar
    32     4     5    1
    33    12    13   ar
    34    13    14   ar
    35    14    18    1
    36    18    19    1
    37    14    15   ar
    38    15    20    1
    39    20    21    1
    40    15    10   ar
    41     5     1    1
    42    34    28   ar
    43    41    35   ar
    44     7     8    1
@<TRIPOS>MOLECULE
*****
 41 44 0 0 0
SMALL
GASTEIGER

@<TRIPOS>ATOM
      1 C         143.9609  139.3292  162.3772 C.3     1  UNL1        0.0331
      2 C         143.9111  138.8522  163.7985 C.3     1  UNL1        0.0201
      3 C         144.3363  139.9863  164.6833 C.3     1  UNL1        0.0722
      4 N         144.6489  141.1643  163.8090 N.3     1  UNL1       -0.2726
      5 C         144.4169  140.7582  162.3837 C.3     1  UNL1        0.0735
      6 C         143.6154  138.5195  161.1628 C.3     1  UNL1        0.0702
      7 N         142.4101  138.8737  160.3432 N.3     1  UNL1       -0.2937
      8 H         142.7020  139.5998  159.6889 H       1  UNL1        0.1236
      9 C         141.1656  139.3720  161.0161 C.3     1  UNL1        0.0958
     10 C         139.0481  142.7187  161.2726 C.ar    1  UNL1        0.1752
     11 C         139.4341  141.2736  161.3848 C.ar    1  UNL1        0.0373
     12 C         140.7796  140.8172  160.9039 C.ar    1  UNL1       -0.0001
     13 C         141.7391  141.8059  160.3109 C.ar    1  UNL1        0.0373
     14 C         141.3531  143.2510  160.1987 C.ar    1  UNL1        0.1752
     15 C         140.0076  143.7074  160.6796 C.ar    1  UNL1        0.2060
     16 C         137.5454  143.7091  163.1463 C.3     1  UNL1        0.2526
     17 O         137.7026  143.1752  161.7535 O.3     1  UNL1       -0.4683
     18 O         142.3127  144.2398  159.6056 O.3     1  UNL1       -0.4683
     19 C         142.6481  144.1761  158.1450 C.3     1  UNL1        0.2526
     20 O         139.6217  145.1526  160.5674 O.3     1  UNL1       -0.4654
     21 C         139.9109  146.0960  161.6971 C.3     1  UNL1        0.2528
     22 C         145.1122  142.5119  164.2775 C.3     1  UNL1        0.0721
     23 C         144.3566  143.7449  163.8793 C.3     1  UNL1        0.0173
     24 C         142.9552  143.9570  164.3702 C.3     1  UNL1        0.0014
     25 C         141.8662  143.0094  163.9626 C.3     1  UNL1        0.0007
     26 C         140.6439  142.8585  164.8190 C.3     1  UNL1        0.0087
     27 C         140.6445  141.8875  165.9624 C.3     1  UNL1        0.0446
     28 C         141.2927  142.2604  167.2626 C.ar    1  UNL1       -0.0183
     29 C         142.7412  141.9476  167.4953 C.ar    1  UNL1       -0.0017
     30 C         143.3896  142.3204  168.7955 C.ar    1  UNL1        0.0293
     31 C         142.5895  143.0062  169.8630 C.ar    1  UNL1        0.1401
     32 F         143.2378  143.3791  171.1633 F       1  UNL1       -0.2042
     33 C         141.1410  143.3191  169.6303 C.ar    1  UNL1        0.0293
     34 C         140.4927  142.9462  168.3301 C.ar    1  UNL1       -0.0017
     35 C         139.9968  140.5437  165.8054 C.ar    1  UNL1       -0.0183
     36 C         140.4660  139.6055  164.7332 C.ar    1  UNL1       -0.0017
     37 C         139.8183  138.2617  164.5763 C.ar    1  UNL1        0.0293
     38 C         138.7013  137.8561  165.4916 C.ar    1  UNL1        0.1401
     39 F         138.0536  136.5123  165.3346 F       1  UNL1       -0.2042
     40 C         138.2320  138.7942  166.5638 C.ar    1  UNL1        0.0293
     41 C         138.8797  140.1381  166.7208 C.ar    1  UNL1       -0.0017
@<TRIPOS>BOND
     1    16    17    1
     2    17    10    1
     3    10    11   ar
     4    11    12   ar
     5    12     9    1
     6     9     7    1
     7     7     6    1
     8     6     1    1
     9     1     2    1
    10     2     3    1
    11     3     4    1
    12     4    22    1
    13    22    23    1
    14    23    24    1
    15    24    25    1
    16    25    26    1
    17    26    27    1
    18    27    28    1
    19    28    29   ar
    20    29    30   ar
    21    30    31   ar
    22    31    32    1
    23    31    33   ar
    24    33    34   ar
    25    27    35    1
    26    35    36   ar
    27    36    37   ar
    28    37    38   ar
    29    38    39    1
    30    38    40   ar
    31    40    41   ar
    32     4     5    1
    33    12    13   ar
    34    13    14   ar
    35    14    18    1
    36    18    19    1
    37    14    15   ar
    38    15    20    1
    39    20    21    1
    40    15    10   ar
    41     5     1    1
    42    34    28   ar
    43    41    35   ar
    44     7     8    1
@<TRIPOS>MOLECULE
*****
 41 44 0 0 0
SMALL
GASTEIGER

@<TRIPOS>ATOM
      1 C         138.2529  141.6396  161.8588 C.3     1  UNL1        0.0331
      2 C         139.1317  141.0449  160.7986 C.3     1  UNL1        0.0201
      3 C         139.2965  139.5845  161.0986 C.3     1  UNL1        0.0722
      4 N         138.5195  139.2765  162.3442 N.3     1  UNL1       -0.2726
      5 C         137.8746  140.5467  162.8140 C.3     1  UNL1        0.0735
      6 C         137.8272  143.0752  161.9481 C.3     1  UNL1        0.0702
      7 N         138.1980  143.8941  163.1489 N.3     1  UNL1       -0.2937
      8 H         137.3414  144.3401  163.4771 H       1  UNL1        0.1236
      9 C         139.2308  144.9753  163.0294 C.3     1  UNL1        0.0958
     10 C         143.1144  144.4639  163.6665 C.ar    1  UNL1        0.1752
     11 C         141.6759  144.8227  163.8943 C.ar    1  UNL1        0.0373
     12 C         140.6693  144.6165  162.8015 C.ar    1  UNL1       -0.0001
     13 C         141.1012  144.0515  161.4809 C.ar    1  UNL1        0.0373
     14 C         142.5397  143.6927  161.2530 C.ar    1  UNL1        0.1752
     15 C         143.5463  143.8989  162.3458 C.ar    1  UNL1        0.2060
     16 C         144.5615  143.5100  165.6019 C.3     1  UNL1        0.2526
     17 O         144.1210  144.6701  164.7593 O.3     1  UNL1       -0.4683
     18 O         142.9717  143.1277  159.9323 O.3     1  UNL1       -0.4683
     19 C         142.6537  141.7034  159.5858 C.3     1  UNL1        0.2526
     20 O         144.9849  143.5401  162.1179 O.3     1  UNL1       -0.4654
     21 C         145.4411  142.1220  162.2938 C.3     1  UNL1        0.2528
     22 C         138.4072  137.9342  163.0041 C.3     1  UNL1        0.0721
     23 C         139.2239  137.6277  164.2242 C.3     1  UNL1        0.0173
     24 C         138.6528  137.8713  165.5897 C.3     1  UNL1        0.0014
     25 C         138.4838  139.2743  166.0926 C.3     1  UNL1        0.0007
     26 C         139.3161  139.7651  167.2401 C.3     1  UNL1        0.0087
     27 C         140.6544  140.3915  166.9820 C.3     1  UNL1        0.0446
     28 C         141.2682  141.2982  168.0071 C.ar    1  UNL1       -0.0183
     29 C         142.7592  141.3550  168.1614 C.ar    1  UNL1       -0.0017
     30 C         143.3732  142.2617  169.1866 C.ar    1  UNL1        0.0293
     31 C         142.4961  143.1116  170.0574 C.ar    1  UNL1        0.1401
     32 F         143.1101  144.0183  171.0826 F       1  UNL1       -0.2042
     33 C         141.0052  143.0548  169.9032 C.ar    1  UNL1        0.0293
     34 C         140.3912  142.1481  168.8780 C.ar    1  UNL1       -0.0017
     35 C         141.3788  140.1111  165.6987 C.ar    1  UNL1       -0.0183
     36 C         141.1882  141.0151  164.5170 C.ar    1  UNL1       -0.0017
     37 C         141.9126  140.7347  163.2338 C.ar    1  UNL1        0.0293
     38 C         142.8274  139.5503  163.1323 C.ar    1  UNL1        0.1401
     39 F         143.5518  139.2699  161.8491 F       1  UNL1       -0.2042
     40 C         143.0180  138.6463  164.3140 C.ar    1  UNL1        0.0293
     41 C         142.2936  138.9267  165.5973 C.ar    1  UNL1       -0.0017
@<TRIPOS>BOND
     1    16    17    1
     2    17    10    1
     3    10    11   ar
     4    11    12   ar
     5    12     9    1
     6     9     7    1
     7     7     6    1
     8     6     1    1
     9     1     2    1
    10     2     3    1
    11     3     4    1
    12     4    22    1
    13    22    23    1
    14    23    24    1
    15    24    25    1
    16    25    26    1
    17    26    27    1
    18    27    28    1
    19    28    29   ar
    20    29    30   ar
    21    30    31   ar
    22    31    32    1
    23    31    33   ar
    24    33    34   ar
    25    27    35    1
    26    35    36   ar
    27    36    37   ar
    28    37    38   ar
    29    38    39    1
    30    38    40   ar
    31    40    41   ar
    32     4     5    1
    33    12    13   ar
    34    13    14   ar
    35    14    18    1
    36    18    19    1
    37    14    15   ar
    38    15    20    1
    39    20    21    1
    40    15    10   ar
    41     5     1    1
    42    34    28   ar
    43    41    35   ar
    44     7     8    1
@<TRIPOS>MOLECULE
*****
 41 44 0 0 0
SMALL
GASTEIGER

@<TRIPOS>ATOM
      1 C         143.6088  141.4114  164.5507 C.3     1  UNL1        0.0331
      2 C         144.8143  140.5436  164.3421 C.3     1  UNL1        0.0201
      3 C         144.3590  139.2619  163.7098 C.3     1  UNL1        0.0722
      4 N         142.8720  139.3376  163.5275 N.3     1  UNL1       -0.2726
      5 C         142.4084  140.6661  164.0473 C.3     1  UNL1        0.0735
      6 C         143.6044  142.7837  165.1565 C.3     1  UNL1        0.0702
      7 N         144.0839  143.9583  164.3562 N.3     1  UNL1       -0.2937
      8 H         144.4875  144.6207  165.0185 H       1  UNL1        0.1236
      9 C         143.1195  144.7300  163.5052 C.3     1  UNL1        0.0958
     10 C         143.2239  142.6708  160.1141 C.ar    1  UNL1        0.1752
     11 C         143.5944  143.1783  161.4762 C.ar    1  UNL1        0.0373
     12 C         142.7489  144.2225  162.1431 C.ar    1  UNL1       -0.0001
     13 C         141.5330  144.7594  161.4479 C.ar    1  UNL1        0.0373
     14 C         141.1626  144.2520  160.0858 C.ar    1  UNL1        0.1752
     15 C         142.0080  143.2077  159.4190 C.ar    1  UNL1        0.2060
     16 C         143.7111  140.1759  159.5778 C.3     1  UNL1        0.2526
     17 O         144.0694  141.6266  159.4473 O.3     1  UNL1       -0.4683
     18 O         139.9466  144.7888  159.3906 O.3     1  UNL1       -0.4683
     19 C         140.0934  145.8239  158.3149 C.3     1  UNL1        0.2526
     20 O         141.6375  142.7003  158.0568 O.3     1  UNL1       -0.4654
     21 C         142.3491  143.2211  156.8434 C.3     1  UNL1        0.2528
     22 C         142.0015  138.2719  162.9303 C.3     1  UNL1        0.0721
     23 C         141.0830  137.4748  163.8081 C.3     1  UNL1        0.0173
     24 C         139.6371  137.8568  163.9236 C.3     1  UNL1        0.0014
     25 C         138.9267  137.7162  165.2373 C.3     1  UNL1        0.0007
     26 C         138.3218  138.9207  165.8956 C.3     1  UNL1        0.0087
     27 C         139.1907  140.0822  166.2777 C.3     1  UNL1        0.0446
     28 C         140.1653  139.9491  167.4100 C.ar    1  UNL1       -0.0183
     29 C         141.5945  139.5891  167.1310 C.ar    1  UNL1       -0.0017
     30 C         142.5692  139.4560  168.2634 C.ar    1  UNL1        0.0293
     31 C         142.1147  139.6829  169.6747 C.ar    1  UNL1        0.1401
     32 F         143.0894  139.5499  170.8071 F       1  UNL1       -0.2042
     33 C         140.6855  140.0430  169.9537 C.ar    1  UNL1        0.0293
     34 C         139.7108  140.1761  168.8214 C.ar    1  UNL1       -0.0017
     35 C         139.0848  141.3768  165.5273 C.ar    1  UNL1       -0.0183
     36 C         139.9388  142.5449  165.9227 C.ar    1  UNL1       -0.0017
     37 C         139.8329  143.8393  165.1723 C.ar    1  UNL1        0.0293
     38 C         138.8731  143.9658  164.0266 C.ar    1  UNL1        0.1401
     39 F         138.7672  145.2603  163.2762 F       1  UNL1       -0.2042
     40 C         138.0191  142.7978  163.6312 C.ar    1  UNL1        0.0293
     41 C         138.1249  141.5032  164.3816 C.ar    1  UNL1       -0.0017
@<TRIPOS>BOND
     1    16    17    1
     2    17    10    1
     3    10    11   ar
     4    11    12   ar
     5    12     9    1
     6     9     7    1
     7     7     6    1
     8     6     1    1
     9     1     2    1
    10     2     3    1
    11     3     4    1
    12     4    22    1
    13    22    23    1
    14    23    24    1
    15    24    25    1
    16    25    26    1
    17    26    27    1
    18    27    28    1
    19    28    29   ar
    20    29    30   ar
    21    30    31   ar
    22    31    32    1
    23    31    33   ar
    24    33    34   ar
    25    27    35    1
    26    35    36   ar
    27    36    37   ar
    28    37    38   ar
    29    38    39    1
    30    38    40   ar
    31    40    41   ar
    32     4     5    1
    33    12    13   ar
    34    13    14   ar
    35    14    18    1
    36    18    19    1
    37    14    15   ar
    38    15    20    1
    39    20    21    1
    40    15    10   ar
    41     5     1    1
    42    34    28   ar
    43    41    35   ar
    44     7     8    1
@<TRIPOS>MOLECULE
*****
 41 44 0 0 0
SMALL
GASTEIGER

@<TRIPOS>ATOM
      1 C         143.3748  141.2217  164.5504 C.3     1  UNL1        0.0331
      2 C         144.2919  140.0370  164.6233 C.3     1  UNL1        0.0201
      3 C         143.6661  138.9177  163.8451 C.3     1  UNL1        0.0722
      4 N         142.3622  139.4107  163.2913 N.3     1  UNL1       -0.2726
      5 C         142.1821  140.8346  163.7272 C.3     1  UNL1        0.0735
      6 C         143.6092  142.5587  165.1887 C.3     1  UNL1        0.0702
      7 N         144.1288  143.7012  164.3673 N.3     1  UNL1       -0.2937
      8 H         144.6245  144.3222  165.0069 H       1  UNL1        0.1236
      9 C         143.1767  144.5562  163.5847 C.3     1  UNL1        0.0958
     10 C         143.3426  142.8833  159.9896 C.ar    1  UNL1        0.1752
     11 C         143.7024  143.2568  161.3971 C.ar    1  UNL1        0.0373
     12 C         142.8169  144.1828  162.1771 C.ar    1  UNL1       -0.0001
     13 C         141.5716  144.7353  161.5496 C.ar    1  UNL1        0.0373
     14 C         141.2118  144.3619  160.1421 C.ar    1  UNL1        0.1752
     15 C         142.0973  143.4359  159.3621 C.ar    1  UNL1        0.2060
     16 C         145.1777  142.5104  158.1887 C.3     1  UNL1        0.2526
     17 O         144.2282  141.9573  159.2097 O.3     1  UNL1       -0.4683
     18 O         139.9664  144.9145  159.5145 O.3     1  UNL1       -0.4683
     19 C         140.0670  145.8550  158.3503 C.3     1  UNL1        0.2526
     20 O         141.7375  143.0625  157.9545 O.3     1  UNL1       -0.4654
     21 C         140.8472  141.8834  157.6957 C.3     1  UNL1        0.2528
     22 C         141.4061  138.6188  162.4493 C.3     1  UNL1        0.0721
     23 C         140.3113  137.8272  163.1009 C.3     1  UNL1        0.0173
     24 C         140.1108  137.9054  164.5854 C.3     1  UNL1        0.0014
     25 C         138.7243  137.8780  165.1574 C.3     1  UNL1        0.0007
     26 C         138.3127  138.9001  166.1753 C.3     1  UNL1        0.0087
     27 C         139.2163  140.0568  166.4846 C.3     1  UNL1        0.0446
     28 C         139.1118  141.3238  165.6887 C.ar    1  UNL1       -0.0183
     29 C         139.9750  142.5006  166.0355 C.ar    1  UNL1       -0.0017
     30 C         139.8705  143.7678  165.2396 C.ar    1  UNL1        0.0293
     31 C         138.9029  143.8581  164.0970 C.ar    1  UNL1        0.1401
     32 F         138.7984  145.1253  163.3011 F       1  UNL1       -0.2042
     33 C         138.0397  142.6814  163.7503 C.ar    1  UNL1        0.0293
     34 C         138.1442  141.4142  164.5461 C.ar    1  UNL1       -0.0017
     35 C         140.2245  139.9462  167.5899 C.ar    1  UNL1       -0.0183
     36 C         141.6603  139.6541  167.2689 C.ar    1  UNL1       -0.0017
     37 C         142.6684  139.5436  168.3741 C.ar    1  UNL1        0.0293
     38 C         142.2406  139.7251  169.8003 C.ar    1  UNL1        0.1401
     39 F         143.2487  139.6145  170.9056 F       1  UNL1       -0.2042
     40 C         140.8048  140.0171  170.1213 C.ar    1  UNL1        0.0293
     41 C         139.7966  140.1277  169.0161 C.ar    1  UNL1       -0.0017
@<TRIPOS>BOND
     1    16    17    1
     2    17    10    1
     3    10    11   ar
     4    11    12   ar
     5    12     9    1
     6     9     7    1
     7     7     6    1
     8     6     1    1
     9     1     2    1
    10     2     3    1
    11     3     4    1
    12     4    22    1
    13    22    23    1
    14    23    24    1
    15    24    25    1
    16    25    26    1
    17    26    27    1
    18    27    28    1
    19    28    29   ar
    20    29    30   ar
    21    30    31   ar
    22    31    32    1
    23    31    33   ar
    24    33    34   ar
    25    27    35    1
    26    35    36   ar
    27    36    37   ar
    28    37    38   ar
    29    38    39    1
    30    38    40   ar
    31    40    41   ar
    32     4     5    1
    33    12    13   ar
    34    13    14   ar
    35    14    18    1
    36    18    19    1
    37    14    15   ar
    38    15    20    1
    39    20    21    1
    40    15    10   ar
    41     5     1    1
    42    34    28   ar
    43    41    35   ar
    44     7     8    1
@<TRIPOS>MOLECULE
*****
 41 44 0 0 0
SMALL
GASTEIGER

@<TRIPOS>ATOM
      1 C         139.6510  144.7142  162.7786 C.3     1  UNL1        0.0331
      2 C         139.4010  144.8563  164.2508 C.3     1  UNL1        0.0201
      3 C         138.5872  143.6785  164.6986 C.3     1  UNL1        0.0722
      4 N         138.3342  142.8085  163.5031 N.3     1  UNL1       -0.2726
      5 C         138.9916  143.4486  162.3165 C.3     1  UNL1        0.0735
      6 C         140.4245  145.6699  161.9193 C.3     1  UNL1        0.0702
      7 N         141.7329  145.2485  161.3191 N.3     1  UNL1       -0.2937
      8 H         141.5350  144.9433  160.3661 H       1  UNL1        0.1236
      9 C         142.5378  144.1594  161.9641 C.3     1  UNL1        0.0958
     10 C         142.5153  140.3436  160.8734 C.ar    1  UNL1        0.1752
     11 C         142.2149  141.6031  161.6307 C.ar    1  UNL1        0.0373
     12 C         142.8382  142.8999  161.2067 C.ar    1  UNL1       -0.0001
     13 C         143.7619  142.9372  160.0255 C.ar    1  UNL1        0.0373
     14 C         144.0623  141.6778  159.2682 C.ar    1  UNL1        0.1752
     15 C         143.4390  140.3810  159.6922 C.ar    1  UNL1        0.2060
     16 C         140.5033  138.7001  160.8487 C.3     1  UNL1        0.2526
     17 O         141.8919  139.0468  161.2974 O.3     1  UNL1       -0.4683
     18 O         144.9860  141.7151  158.0869 O.3     1  UNL1       -0.4683
     19 C         144.4277  141.8623  156.7026 C.3     1  UNL1        0.2526
     20 O         143.7394  139.1215  158.9349 O.3     1  UNL1       -0.4654
     21 C         142.7947  138.6413  157.8733 C.3     1  UNL1        0.2528
     22 C         137.5597  141.5239  163.4956 C.3     1  UNL1        0.0721
     23 C         138.0302  140.3597  164.3160 C.3     1  UNL1        0.0173
     24 C         139.4659  139.9299  164.2539 C.3     1  UNL1        0.0014
     25 C         139.8276  138.4899  164.4675 C.3     1  UNL1        0.0007
     26 C         141.0626  138.1335  165.2409 C.3     1  UNL1        0.0087
     27 C         141.8407  139.2044  165.9464 C.3     1  UNL1        0.0446
     28 C         142.9438  139.9252  165.2299 C.ar    1  UNL1       -0.0183
     29 C         143.1364  141.3982  165.4383 C.ar    1  UNL1       -0.0017
     30 C         144.2395  142.1191  164.7218 C.ar    1  UNL1        0.0293
     31 C         145.1501  141.3671  163.7970 C.ar    1  UNL1        0.1401
     32 F         146.2533  142.0881  163.0805 F       1  UNL1       -0.2042
     33 C         144.9576  139.8942  163.5887 C.ar    1  UNL1        0.0293
     34 C         143.8544  139.1732  164.3051 C.ar    1  UNL1       -0.0017
     35 C         141.5157  139.5543  167.3684 C.ar    1  UNL1       -0.0183
     36 C         140.1596  140.0920  167.7173 C.ar    1  UNL1       -0.0017
     37 C         139.8346  140.4420  169.1392 C.ar    1  UNL1        0.0293
     38 C         140.8658  140.2541  170.2123 C.ar    1  UNL1        0.1401
     39 F         140.5408  140.6040  171.6342 F       1  UNL1       -0.2042
     40 C         142.2219  139.7164  169.8634 C.ar    1  UNL1        0.0293
     41 C         142.5469  139.3664  168.4414 C.ar    1  UNL1       -0.0017
@<TRIPOS>BOND
     1    16    17    1
     2    17    10    1
     3    10    11   ar
     4    11    12   ar
     5    12     9    1
     6     9     7    1
     7     7     6    1
     8     6     1    1
     9     1     2    1
    10     2     3    1
    11     3     4    1
    12     4    22    1
    13    22    23    1
    14    23    24    1
    15    24    25    1
    16    25    26    1
    17    26    27    1
    18    27    28    1
    19    28    29   ar
    20    29    30   ar
    21    30    31   ar
    22    31    32    1
    23    31    33   ar
    24    33    34   ar
    25    27    35    1
    26    35    36   ar
    27    36    37   ar
    28    37    38   ar
    29    38    39    1
    30    38    40   ar
    31    40    41   ar
    32     4     5    1
    33    12    13   ar
    34    13    14   ar
    35    14    18    1
    36    18    19    1
    37    14    15   ar
    38    15    20    1
    39    20    21    1
    40    15    10   ar
    41     5     1    1
    42    34    28   ar
    43    41    35   ar
    44     7     8    1
@<TRIPOS>MOLECULE
*****
 41 44 0 0 0
SMALL
GASTEIGER

@<TRIPOS>ATOM
      1 C         143.2728  141.5245  164.2001 C.3     1  UNL1        0.0331
      2 C         144.4598  140.6885  164.5769 C.3     1  UNL1        0.0201
      3 C         144.1441  139.2597  164.2469 C.3     1  UNL1        0.0722
      4 N         142.7619  139.2127  163.6660 N.3     1  UNL1       -0.2726
      5 C         142.2234  140.6124  163.6371 C.3     1  UNL1        0.0735
      6 C         143.1556  143.0116  164.3584 C.3     1  UNL1        0.0702
      7 N         143.4037  143.9126  163.1851 N.3     1  UNL1       -0.2937
      8 H         142.4917  144.1313  162.7839 H       1  UNL1        0.1236
      9 C         144.2743  143.4496  162.0548 C.3     1  UNL1        0.0958
     10 C         142.0606  142.7526  158.8355 C.ar    1  UNL1        0.1752
     11 C         142.6698  143.4570  160.0113 C.ar    1  UNL1        0.0373
     12 C         143.6651  142.7451  160.8788 C.ar    1  UNL1       -0.0001
     13 C         144.0513  141.3289  160.5705 C.ar    1  UNL1        0.0373
     14 C         143.4421  140.6246  159.3946 C.ar    1  UNL1        0.1752
     15 C         142.4468  141.3364  158.5271 C.ar    1  UNL1        0.2060
     16 C         139.6577  143.6613  158.4476 C.3     1  UNL1        0.2526
     17 O         141.0653  143.4645  157.9680 O.3     1  UNL1       -0.4683
     18 O         143.8283  139.2083  159.0861 O.3     1  UNL1       -0.4683
     19 C         142.9491  138.0773  159.5309 C.3     1  UNL1        0.2526
     20 O         141.8376  140.6320  157.3511 O.3     1  UNL1       -0.4654
     21 C         140.4743  140.0175  157.4688 C.3     1  UNL1        0.2528
     22 C         142.0442  137.9821  163.1965 C.3     1  UNL1        0.0721
     23 C         141.0441  137.3103  164.0900 C.3     1  UNL1        0.0173
     24 C         139.6163  137.7700  164.0964 C.3     1  UNL1        0.0014
     25 C         138.7978  137.6577  165.3484 C.3     1  UNL1        0.0007
     26 C         138.2267  138.8905  165.9843 C.3     1  UNL1        0.0087
     27 C         139.1175  140.0581  166.2897 C.3     1  UNL1        0.0446
     28 C         138.9865  141.3276  165.5016 C.ar    1  UNL1       -0.0183
     29 C         138.0639  141.3851  164.3202 C.ar    1  UNL1       -0.0017
     30 C         137.9329  142.6545  163.5320 C.ar    1  UNL1        0.0293
     31 C         138.7245  143.8665  163.9251 C.ar    1  UNL1        0.1401
     32 F         138.5935  145.1360  163.1368 F       1  UNL1       -0.2042
     33 C         139.6471  143.8089  165.1064 C.ar    1  UNL1        0.0293
     34 C         139.7781  142.5395  165.8946 C.ar    1  UNL1       -0.0017
     35 C         140.1391  139.9562  167.3833 C.ar    1  UNL1       -0.0183
     36 C         141.5637  139.6252  167.0504 C.ar    1  UNL1       -0.0017
     37 C         142.5853  139.5233  168.1439 C.ar    1  UNL1        0.0293
     38 C         142.1823  139.7524  169.5705 C.ar    1  UNL1        0.1401
     39 F         143.2039  139.6505  170.6641 F       1  UNL1       -0.2042
     40 C         140.7577  140.0834  169.9035 C.ar    1  UNL1        0.0293
     41 C         139.7360  140.1853  168.8099 C.ar    1  UNL1       -0.0017
@<TRIPOS>BOND
     1    16    17    1
     2    17    10    1
     3    10    11   ar
     4    11    12   ar
     5    12     9    1
     6     9     7    1
     7     7     6    1
     8     6     1    1
     9     1     2    1
    10     2     3    1
    11     3     4    1
    12     4    22    1
    13    22    23    1
    14    23    24    1
    15    24    25    1
    16    25    26    1
    17    26    27    1
    18    27    28    1
    19    28    29   ar
    20    29    30   ar
    21    30    31   ar
    22    31    32    1
    23    31    33   ar
    24    33    34   ar
    25    27    35    1
    26    35    36   ar
    27    36    37   ar
    28    37    38   ar
    29    38    39    1
    30    38    40   ar
    31    40    41   ar
    32     4     5    1
    33    12    13   ar
    34    13    14   ar
    35    14    18    1
    36    18    19    1
    37    14    15   ar
    38    15    20    1
    39    20    21    1
    40    15    10   ar
    41     5     1    1
    42    34    28   ar
    43    41    35   ar
    44     7     8    1
@<TRIPOS>MOLECULE
*****
 41 44 0 0 0
SMALL
GASTEIGER

@<TRIPOS>ATOM
      1 C         143.6120  141.4112  164.3064 C.3     1  UNL1        0.0331
      2 C         144.8308  140.5375  164.3409 C.3     1  UNL1        0.0201
      3 C         144.4223  139.1554  163.9250 C.3     1  UNL1        0.0722
      4 N         142.9510  139.1749  163.6335 N.3     1  UNL1       -0.2726
      5 C         142.4503  140.5691  163.8692 C.3     1  UNL1        0.0735
      6 C         143.5635  142.8708  164.6490 C.3     1  UNL1        0.0702
      7 N         144.0193  143.8915  163.6488 N.3     1  UNL1       -0.2937
      8 H         144.2629  144.7307  164.1747 H       1  UNL1        0.1236
      9 C         143.0991  144.3236  162.5457 C.3     1  UNL1        0.0958
     10 C         140.9664  141.9547  160.1814 C.ar    1  UNL1        0.1752
     11 C         141.3228  142.9126  161.2793 C.ar    1  UNL1        0.0373
     12 C         142.7428  143.3656  161.4478 C.ar    1  UNL1       -0.0001
     13 C         143.8064  142.8608  160.5184 C.ar    1  UNL1        0.0373
     14 C         143.4500  141.9029  159.4205 C.ar    1  UNL1        0.1752
     15 C         142.0300  141.4498  159.2521 C.ar    1  UNL1        0.2060
     16 C         138.4455  142.5135  159.8937 C.3     1  UNL1        0.2526
     17 O         139.5464  141.5017  160.0129 O.3     1  UNL1       -0.4683
     18 O         144.5136  141.3979  158.4911 O.3     1  UNL1       -0.4683
     19 C         145.1107  142.3153  157.4655 C.3     1  UNL1        0.2526
     20 O         141.6736  140.4919  158.1541 O.3     1  UNL1       -0.4654
     21 C         141.3902  141.0053  156.7735 C.3     1  UNL1        0.2528
     22 C         142.1254  138.0056  163.1850 C.3     1  UNL1        0.0721
     23 C         141.1425  137.3763  164.1270 C.3     1  UNL1        0.0173
     24 C         139.7002  137.7867  164.0906 C.3     1  UNL1        0.0014
     25 C         138.8682  137.7150  165.3367 C.3     1  UNL1        0.0007
     26 C         138.2956  138.9685  165.9293 C.3     1  UNL1        0.0087
     27 C         139.2006  140.1095  166.2887 C.3     1  UNL1        0.0446
     28 C         140.1802  139.9636  167.4152 C.ar    1  UNL1       -0.0183
     29 C         139.7270  140.1537  168.8325 C.ar    1  UNL1       -0.0017
     30 C         140.7066  140.0078  169.9590 C.ar    1  UNL1        0.0293
     31 C         142.1393  139.6719  169.6684 C.ar    1  UNL1        0.1401
     32 F         143.1189  139.5260  170.7950 F       1  UNL1       -0.2042
     33 C         142.5924  139.4818  168.2511 C.ar    1  UNL1        0.0293
     34 C         141.6129  139.6277  167.1245 C.ar    1  UNL1       -0.0017
     35 C         139.1259  141.3964  165.5216 C.ar    1  UNL1       -0.0183
     36 C         140.0314  142.5371  165.8804 C.ar    1  UNL1       -0.0017
     37 C         139.9566  143.8239  165.1133 C.ar    1  UNL1        0.0293
     38 C         138.9764  143.9700  163.9873 C.ar    1  UNL1        0.1401
     39 F         138.9017  145.2568  163.2201 F       1  UNL1       -0.2042
     40 C         138.0709  142.8292  163.6284 C.ar    1  UNL1        0.0293
     41 C         138.1456  141.5424  164.3956 C.ar    1  UNL1       -0.0017
@<TRIPOS>BOND
     1    16    17    1
     2    17    10    1
     3    10    11   ar
     4    11    12   ar
     5    12     9    1
     6     9     7    1
     7     7     6    1
     8     6     1    1
     9     1     2    1
    10     2     3    1
    11     3     4    1
    12     4    22    1
    13    22    23    1
    14    23    24    1
    15    24    25    1
    16    25    26    1
    17    26    27    1
    18    27    28    1
    19    28    29   ar
    20    29    30   ar
    21    30    31   ar
    22    31    32    1
    23    31    33   ar
    24    33    34   ar
    25    27    35    1
    26    35    36   ar
    27    36    37   ar
    28    37    38   ar
    29    38    39    1
    30    38    40   ar
    31    40    41   ar
    32     4     5    1
    33    12    13   ar
    34    13    14   ar
    35    14    18    1
    36    18    19    1
    37    14    15   ar
    38    15    20    1
    39    20    21    1
    40    15    10   ar
    41     5     1    1
    42    34    28   ar
    43    41    35   ar
    44     7     8    1
@<TRIPOS>MOLECULE
*****
 41 44 0 0 0
SMALL
GASTEIGER

@<TRIPOS>ATOM
      1 C         141.4777  137.9992  162.6035 C.3     1  UNL1        0.0331
      2 C         142.3290  138.0071  161.3686 C.3     1  UNL1        0.0201
      3 C         143.7127  138.4322  161.7621 C.3     1  UNL1        0.0722
      4 N         143.7164  138.6872  163.2403 N.3     1  UNL1       -0.2726
      5 C         142.3351  138.4196  163.7603 C.3     1  UNL1        0.0735
      6 C         140.0241  137.6350  162.6700 C.3     1  UNL1        0.0702
      7 N         138.9767  138.6944  162.4947 N.3     1  UNL1       -0.2937
      8 H         138.7283  138.7021  161.5055 H       1  UNL1        0.1236
      9 C         139.2742  140.1139  162.8775 C.3     1  UNL1        0.0958
     10 C         141.4862  142.6344  160.7552 C.ar    1  UNL1        0.1752
     11 C         141.0800  141.6438  161.8057 C.ar    1  UNL1        0.0373
     12 C         139.6804  141.1046  161.8269 C.ar    1  UNL1       -0.0001
     13 C         138.6871  141.5559  160.7976 C.ar    1  UNL1        0.0373
     14 C         139.0933  142.5466  159.7471 C.ar    1  UNL1        0.1752
     15 C         140.4929  143.0858  159.7259 C.ar    1  UNL1        0.2060
     16 C         143.9322  142.5108  159.8882 C.3     1  UNL1        0.2526
     17 O         142.8858  143.1737  160.7340 O.3     1  UNL1       -0.4683
     18 O         138.0999  142.9980  158.7178 O.3     1  UNL1       -0.4683
     19 C         137.7296  142.0890  157.5835 C.3     1  UNL1        0.2526
     20 O         140.8991  144.0765  158.6754 O.3     1  UNL1       -0.4654
     21 C         141.2110  143.6093  157.2845 C.3     1  UNL1        0.2528
     22 C         144.8946  139.1316  164.0553 C.3     1  UNL1        0.0721
     23 C         145.3732  140.5506  163.9699 C.3     1  UNL1        0.0173
     24 C         144.4597  141.6202  163.4489 C.3     1  UNL1        0.0014
     25 C         144.6099  143.0337  163.9279 C.3     1  UNL1        0.0007
     26 C         144.0634  143.4341  165.2663 C.3     1  UNL1        0.0087
     27 C         142.7443  142.8915  165.7306 C.3     1  UNL1        0.0446
     28 C         141.4731  143.3548  165.0830 C.ar    1  UNL1       -0.0183
     29 C         141.5108  144.4404  164.0486 C.ar    1  UNL1       -0.0017
     30 C         140.2396  144.9038  163.4010 C.ar    1  UNL1        0.0293
     31 C         138.9308  144.2815  163.7877 C.ar    1  UNL1        0.1401
     32 F         137.6595  144.7448  163.1401 F       1  UNL1       -0.2042
     33 C         138.8931  143.1958  164.8221 C.ar    1  UNL1        0.0293
     34 C         140.1643  142.7325  165.4698 C.ar    1  UNL1       -0.0017
     35 C         142.6964  141.8858  166.8425 C.ar    1  UNL1       -0.0183
     36 C         142.6129  140.4218  166.5265 C.ar    1  UNL1       -0.0017
     37 C         142.5651  139.4161  167.6383 C.ar    1  UNL1        0.0293
     38 C         142.6006  139.8743  169.0662 C.ar    1  UNL1        0.1401
     39 F         142.5528  138.8686  170.1780 F       1  UNL1       -0.2042
     40 C         142.6841  141.3383  169.3822 C.ar    1  UNL1        0.0293
     41 C         142.7320  142.3441  168.2703 C.ar    1  UNL1       -0.0017
@<TRIPOS>BOND
     1    16    17    1
     2    17    10    1
     3    10    11   ar
     4    11    12   ar
     5    12     9    1
     6     9     7    1
     7     7     6    1
     8     6     1    1
     9     1     2    1
    10     2     3    1
    11     3     4    1
    12     4    22    1
    13    22    23    1
    14    23    24    1
    15    24    25    1
    16    25    26    1
    17    26    27    1
    18    27    28    1
    19    28    29   ar
    20    29    30   ar
    21    30    31   ar
    22    31    32    1
    23    31    33   ar
    24    33    34   ar
    25    27    35    1
    26    35    36   ar
    27    36    37   ar
    28    37    38   ar
    29    38    39    1
    30    38    40   ar
    31    40    41   ar
    32     4     5    1
    33    12    13   ar
    34    13    14   ar
    35    14    18    1
    36    18    19    1
    37    14    15   ar
    38    15    20    1
    39    20    21    1
    40    15    10   ar
    41     5     1    1
    42    34    28   ar
    43    41    35   ar
    44     7     8    1
