@<TRIPOS>MOLECULE
*****
 34 38 0 0 0
SMALL
GASTEIGER

@<TRIPOS>ATOM
      1 C         139.7784  141.0104  168.6478 C.3     1  UNL1        0.0765
      2 C         138.8158  140.1361  169.3954 C.3     1  UNL1        0.0091
      3 C         138.1624  139.2157  168.4076 C.3     1  UNL1        0.0005
      4 C         138.7211  139.5211  167.0495 C.3     1  UNL1        0.0005
      5 C         137.7003  138.4221  167.0561 C.3     1  UNL1        0.0000
      6 C         138.4495  138.9325  165.6968 C.3     1  UNL1        0.0003
      7 C         139.1767  139.4532  164.4926 C.3     1  UNL1        0.0043
      8 C         140.1754  140.5624  164.6410 C.3     1  UNL1        0.0220
      9 C         140.9026  141.0831  163.4368 C.ar    1  UNL1       -0.0263
     10 C         140.6310  140.4945  162.0841 C.ar    1  UNL1       -0.0015
     11 C         141.3581  141.0152  160.8799 C.ar    1  UNL1        0.0366
     12 C         142.3569  142.1244  161.0284 C.ar    1  UNL1        0.1382
     13 C         142.6285  142.7130  162.3810 C.ar    1  UNL1        0.0323
     14 C         141.9014  142.1923  163.5852 C.ar    1  UNL1       -0.0231
     15 C         142.1730  142.7809  164.9380 C.3     1  UNL1        0.0261
     16 C         141.4458  142.2603  166.1422 C.3     1  UNL1        0.0050
     17 C         140.4471  141.1510  165.9937 C.3     1  UNL1        0.0048
     18 C         139.7199  140.6304  167.1980 C.3     1  UNL1        0.0089
     19 N         142.0332  141.7430  169.7106 N.am    1  UNL1       -0.3043
     20 C         140.6470  142.0775  169.2452 C.2     1  UNL1        0.2220
     21 O         140.1294  143.4791  169.3773 O.2     1  UNL1       -0.2751
     22 H         142.3730  140.8231  169.6239 H       1  UNL1        0.1494
     23 C         144.3793  142.8062  170.0498 C.3     1  UNL1        0.0230
     24 C         142.9017  142.8101  170.3080 C.3     1  UNL1        0.0894
     25 O         143.0841  142.6451  159.8241 O.3     1  UNL1       -0.4754
     26 C         142.3804  143.5490  158.8558 C.3     1  UNL1        0.2068
     27 C         141.5872  144.7175  159.3612 C.3     1  UNL1        0.0646
     28 C         140.1490  144.5371  159.7474 C.3     1  UNL1        0.0759
     29 N         139.7513  144.5676  161.1934 N.3     1  UNL1       -0.2738
     30 C         140.2735  145.5160  162.2316 C.3     1  UNL1        0.0721
     31 C         139.6064  145.1897  163.5349 C.3     1  UNL1        0.0187
     32 C         138.6719  144.0397  163.3021 C.3     1  UNL1        0.0174
     33 C         138.7614  143.6553  161.8550 C.3     1  UNL1        0.0576
     34 C         137.9956  142.5521  161.1868 C.3     1  UNL1        0.0173
@<TRIPOS>BOND
     1    23    24    1
     2    24    19    1
     3    19    20   am
     4    20    21    2
     5     1    20    1
     6     1     2    1
     7     2     3    1
     8     3     4    1
     9     4     5    1
    10     4     6    1
    11     6     7    1
    12     8     7    1
    13     8     9    1
    14     9    10   ar
    15    10    11   ar
    16    11    12   ar
    17    12    25    1
    18    25    26    1
    19    26    27    1
    20    27    28    1
    21    28    29    1
    22    29    30    1
    23    30    31    1
    24    31    32    1
    25    32    33    1
    26    33    34    1
    27    12    13   ar
    28    13    14   ar
    29    14    15    1
    30    15    16    1
    31    17    16    1
    32    17    18    1
    33    18     1    1
    34    18     4    1
    35    17     8    1
    36    14     9   ar
    37    33    29    1
    38    19    22    1
@<TRIPOS>MOLECULE
*****
 34 38 0 0 0
SMALL
GASTEIGER

@<TRIPOS>ATOM
      1 C         139.8338  141.0949  168.5693 C.3     1  UNL1        0.0765
      2 C         138.9818  140.1082  169.3112 C.3     1  UNL1        0.0091
      3 C         138.2713  139.2573  168.3007 C.3     1  UNL1        0.0005
      4 C         138.6842  139.7181  166.9344 C.3     1  UNL1        0.0005
      5 C         137.7112  138.5765  166.9250 C.3     1  UNL1        0.0000
      6 C         138.3056  139.2503  165.5603 C.3     1  UNL1        0.0003
      7 C         138.8928  139.9182  164.3524 C.3     1  UNL1        0.0043
      8 C         139.8584  141.0540  164.5184 C.3     1  UNL1        0.0220
      9 C         140.4456  141.7219  163.3104 C.ar    1  UNL1       -0.0263
     10 C         140.0670  141.2541  161.9364 C.ar    1  UNL1       -0.0015
     11 C         140.6541  141.9220  160.7285 C.ar    1  UNL1        0.0366
     12 C         141.6198  143.0577  160.8945 C.ar    1  UNL1        0.1382
     13 C         141.9983  143.5255  162.2684 C.ar    1  UNL1        0.0323
     14 C         141.4112  142.8576  163.4764 C.ar    1  UNL1       -0.0231
     15 C         141.7898  143.3254  164.8504 C.3     1  UNL1        0.0261
     16 C         141.2027  142.6575  166.0584 C.3     1  UNL1        0.0050
     17 C         140.2370  141.5218  165.8923 C.3     1  UNL1        0.0048
     18 C         139.6499  140.8539  167.1004 C.3     1  UNL1        0.0089
     19 N         142.0923  141.7761  169.6581 N.am    1  UNL1       -0.3043
     20 C         140.7150  142.1394  169.1879 C.2     1  UNL1        0.2220
     21 O         140.2188  143.5471  169.3364 O.2     1  UNL1       -0.2751
     22 H         142.4180  140.8522  169.5606 H       1  UNL1        0.1494
     23 C         144.4479  142.8170  170.0010 C.3     1  UNL1        0.0230
     24 C         142.9734  142.8206  170.2767 C.3     1  UNL1        0.0894
     25 O         142.2069  143.7256  159.6865 O.3     1  UNL1       -0.4754
     26 C         143.2585  143.0246  158.8787 C.3     1  UNL1        0.2068
     27 C         144.4424  142.4075  159.5627 C.3     1  UNL1        0.0646
     28 C         144.2953  141.0995  160.2820 C.3     1  UNL1        0.0759
     29 N         144.4648  141.0394  161.7712 N.3     1  UNL1       -0.2738
     30 C         145.3171  141.9547  162.5992 C.3     1  UNL1        0.0721
     31 C         145.1908  141.5344  164.0336 C.3     1  UNL1        0.0187
     32 C         144.2604  140.3592  164.0920 C.3     1  UNL1        0.0174
     33 C         143.8117  140.0533  162.6937 C.3     1  UNL1        0.0576
     34 C         142.8745  138.9543  162.2891 C.3     1  UNL1        0.0173
@<TRIPOS>BOND
     1    23    24    1
     2    24    19    1
     3    19    20   am
     4    20    21    2
     5     1    20    1
     6     1     2    1
     7     2     3    1
     8     3     4    1
     9     4     5    1
    10     4     6    1
    11     6     7    1
    12     8     7    1
    13     8     9    1
    14     9    10   ar
    15    10    11   ar
    16    11    12   ar
    17    12    25    1
    18    25    26    1
    19    26    27    1
    20    27    28    1
    21    28    29    1
    22    29    30    1
    23    30    31    1
    24    31    32    1
    25    32    33    1
    26    33    34    1
    27    12    13   ar
    28    13    14   ar
    29    14    15    1
    30    15    16    1
    31    17    16    1
    32    17    18    1
    33    18     1    1
    34    18     4    1
    35    17     8    1
    36    14     9   ar
    37    33    29    1
    38    19    22    1
@<TRIPOS>MOLECULE
*****
 34 38 0 0 0
SMALL
GASTEIGER

@<TRIPOS>ATOM
      1 C         142.1225  140.0496  169.8626 C.3     1  UNL1        0.0765
      2 C         141.7337  140.6306  171.1897 C.3     1  UNL1        0.0091
      3 C         140.9571  141.8884  170.9353 C.3     1  UNL1        0.0005
      4 C         140.8659  142.0847  169.4510 C.3     1  UNL1        0.0005
      5 C         140.1840  143.1549  170.2509 C.3     1  UNL1        0.0000
      6 C         140.2201  143.1516  168.6174 C.3     1  UNL1        0.0003
      7 C         140.2946  143.0819  167.1209 C.3     1  UNL1        0.0043
      8 C         141.0148  141.9454  166.4580 C.3     1  UNL1        0.0220
      9 C         141.0893  141.8757  164.9614 C.ar    1  UNL1       -0.0263
     10 C         140.4435  142.9425  164.1279 C.ar    1  UNL1       -0.0015
     11 C         140.5179  142.8728  162.6314 C.ar    1  UNL1        0.0366
     12 C         141.2382  141.7363  161.9684 C.ar    1  UNL1        0.1382
     13 C         141.8840  140.6695  162.8019 C.ar    1  UNL1        0.0323
     14 C         141.8096  140.7392  164.2984 C.ar    1  UNL1       -0.0231
     15 C         142.4554  139.6724  165.1320 C.3     1  UNL1        0.0261
     16 C         142.3809  139.7421  166.6285 C.3     1  UNL1        0.0050
     17 C         141.6607  140.8786  167.2915 C.3     1  UNL1        0.0048
     18 C         141.5862  140.9482  168.7881 C.3     1  UNL1        0.0089
     19 N         143.2251  137.8961  170.8096 N.am    1  UNL1       -0.3043
     20 C         142.9095  138.7907  169.6478 C.2     1  UNL1        0.2220
     21 O         143.3808  138.4267  168.2711 O.2     1  UNL1       -0.2751
     22 H         142.9158  138.1350  171.7132 H       1  UNL1        0.1494
     23 C         144.3292  135.7436  171.7570 C.3     1  UNL1        0.0230
     24 C         144.0121  136.6373  170.5948 C.3     1  UNL1        0.0894
     25 O         141.3127  141.6666  160.4718 O.3     1  UNL1       -0.4754
     26 C         142.5743  142.0638  159.7643 C.3     1  UNL1        0.2068
     27 C         143.9070  141.6735  160.3315 C.3     1  UNL1        0.0646
     28 C         144.7925  142.7140  160.9505 C.3     1  UNL1        0.0759
     29 N         144.5178  143.2009  162.3424 N.3     1  UNL1       -0.2738
     30 C         143.7991  144.4657  162.7083 C.3     1  UNL1        0.0721
     31 C         143.7507  144.5550  164.2049 C.3     1  UNL1        0.0187
     32 C         144.4395  143.3453  164.7639 C.3     1  UNL1        0.0174
     33 C         144.9136  142.5085  163.6128 C.3     1  UNL1        0.0576
     34 C         145.6535  141.2077  163.7144 C.3     1  UNL1        0.0173
@<TRIPOS>BOND
     1    23    24    1
     2    24    19    1
     3    19    20   am
     4    20    21    2
     5     1    20    1
     6     1     2    1
     7     2     3    1
     8     3     4    1
     9     4     5    1
    10     4     6    1
    11     6     7    1
    12     8     7    1
    13     8     9    1
    14     9    10   ar
    15    10    11   ar
    16    11    12   ar
    17    12    25    1
    18    25    26    1
    19    26    27    1
    20    27    28    1
    21    28    29    1
    22    29    30    1
    23    30    31    1
    24    31    32    1
    25    32    33    1
    26    33    34    1
    27    12    13   ar
    28    13    14   ar
    29    14    15    1
    30    15    16    1
    31    17    16    1
    32    17    18    1
    33    18     1    1
    34    18     4    1
    35    17     8    1
    36    14     9   ar
    37    33    29    1
    38    19    22    1
@<TRIPOS>MOLECULE
*****
 34 38 0 0 0
SMALL
GASTEIGER

@<TRIPOS>ATOM
      1 C         140.8035  140.1316  168.4290 C.3     1  UNL1        0.0765
      2 C         139.5453  139.9068  169.2140 C.3     1  UNL1        0.0091
      3 C         138.4801  139.4505  168.2615 C.3     1  UNL1        0.0005
      4 C         139.0800  139.3934  166.8880 C.3     1  UNL1        0.0005
      5 C         137.6347  138.9953  166.9394 C.3     1  UNL1        0.0000
      6 C         138.5042  139.0125  165.5562 C.3     1  UNL1        0.0003
      7 C         139.3645  139.0525  164.3281 C.3     1  UNL1        0.0043
      8 C         140.8005  139.4734  164.4316 C.3     1  UNL1        0.0220
      9 C         141.6607  139.5134  163.2034 C.ar    1  UNL1       -0.0263
     10 C         141.0850  139.1325  161.8718 C.ar    1  UNL1       -0.0015
     11 C         141.9452  139.1725  160.6436 C.ar    1  UNL1        0.0366
     12 C         143.3812  139.5934  160.7472 C.ar    1  UNL1        0.1382
     13 C         143.9570  139.9743  162.0788 C.ar    1  UNL1        0.0323
     14 C         143.0967  139.9343  163.3069 C.ar    1  UNL1       -0.0231
     15 C         143.6725  140.3153  164.6387 C.3     1  UNL1        0.0261
     16 C         142.8122  140.2753  165.8668 C.3     1  UNL1        0.0050
     17 C         141.3762  139.8543  165.7633 C.3     1  UNL1        0.0048
     18 C         140.5160  139.8144  166.9915 C.3     1  UNL1        0.0089
     19 N         142.4208  142.0591  169.0769 N.am    1  UNL1       -0.3043
     20 C         142.1185  140.5928  168.9842 C.2     1  UNL1        0.2220
     21 O         143.1312  139.5876  169.4469 O.2     1  UNL1       -0.2751
     22 H         141.7561  142.7188  168.7732 H       1  UNL1        0.1494
     23 C         143.7682  143.4973  170.7697 C.3     1  UNL1        0.0230
     24 C         143.7358  142.5202  169.6321 C.3     1  UNL1        0.0894
     25 O         144.2414  139.6334  159.5189 O.3     1  UNL1       -0.4754
     26 C         144.2215  140.8402  158.6283 C.3     1  UNL1        0.2068
     27 C         144.3939  142.2093  159.2163 C.3     1  UNL1        0.0646
     28 C         143.2066  142.9465  159.7611 C.3     1  UNL1        0.0759
     29 N         143.1198  143.2490  161.2276 N.3     1  UNL1       -0.2738
     30 C         144.2568  143.6740  162.1090 C.3     1  UNL1        0.0721
     31 C         143.7206  143.8673  163.4965 C.3     1  UNL1        0.0187
     32 C         142.2521  143.5618  163.4726 C.3     1  UNL1        0.0174
     33 C         141.8809  143.1797  162.0704 C.3     1  UNL1        0.0576
     34 C         140.5112  142.7957  161.5945 C.3     1  UNL1        0.0173
@<TRIPOS>BOND
     1    23    24    1
     2    24    19    1
     3    19    20   am
     4    20    21    2
     5     1    20    1
     6     1     2    1
     7     2     3    1
     8     3     4    1
     9     4     5    1
    10     4     6    1
    11     6     7    1
    12     8     7    1
    13     8     9    1
    14     9    10   ar
    15    10    11   ar
    16    11    12   ar
    17    12    25    1
    18    25    26    1
    19    26    27    1
    20    27    28    1
    21    28    29    1
    22    29    30    1
    23    30    31    1
    24    31    32    1
    25    32    33    1
    26    33    34    1
    27    12    13   ar
    28    13    14   ar
    29    14    15    1
    30    15    16    1
    31    17    16    1
    32    17    18    1
    33    18     1    1
    34    18     4    1
    35    17     8    1
    36    14     9   ar
    37    33    29    1
    38    19    22    1
@<TRIPOS>MOLECULE
*****
 34 38 0 0 0
SMALL
GASTEIGER

@<TRIPOS>ATOM
      1 C         140.0569  140.5906  168.0582 C.3     1  UNL1        0.0765
      2 C         138.8939  140.1504  168.8970 C.3     1  UNL1        0.0091
      3 C         138.1121  139.1397  168.1114 C.3     1  UNL1        0.0005
      4 C         138.7918  138.9553  166.7872 C.3     1  UNL1        0.0005
      5 C         137.5625  138.1141  166.9643 C.3     1  UNL1        0.0000
      6 C         138.4715  138.0867  165.6069 C.3     1  UNL1        0.0003
      7 C         139.3532  138.1148  164.3937 C.3     1  UNL1        0.0043
      8 C         140.5552  139.0116  164.3608 C.3     1  UNL1        0.0220
      9 C         141.4370  139.0397  163.1476 C.ar    1  UNL1       -0.0263
     10 C         141.1167  138.1711  161.9674 C.ar    1  UNL1       -0.0015
     11 C         141.9984  138.1992  160.7542 C.ar    1  UNL1        0.0366
     12 C         143.2004  139.0960  160.7213 C.ar    1  UNL1        0.1382
     13 C         143.5206  139.9646  161.9015 C.ar    1  UNL1        0.0323
     14 C         142.6389  139.9364  163.1146 C.ar    1  UNL1       -0.0231
     15 C         142.9592  140.8051  164.2949 C.3     1  UNL1        0.0261
     16 C         142.0775  140.7769  165.5081 C.3     1  UNL1        0.0050
     17 C         140.8755  139.8802  165.5410 C.3     1  UNL1        0.0048
     18 C         139.9937  139.8521  166.7542 C.3     1  UNL1        0.0089
     19 N         142.3807  141.1342  169.0853 N.am    1  UNL1       -0.3043
     20 C         141.0999  141.5935  168.4539 C.2     1  UNL1        0.2220
     21 O         140.8619  143.0556  168.2183 O.2     1  UNL1       -0.2751
     22 H         142.5368  140.1746  169.2399 H       1  UNL1        0.1494
     23 C         143.1492  143.1051  170.5935 C.3     1  UNL1        0.0230
     24 C         143.4236  142.1371  169.4810 C.3     1  UNL1        0.0894
     25 O         144.0821  139.1241  159.5081 O.3     1  UNL1       -0.4754
     26 C         143.8438  140.1407  158.4312 C.3     1  UNL1        0.2068
     27 C         143.7869  141.5994  158.7761 C.3     1  UNL1        0.0646
     28 C         142.4677  142.3129  158.8026 C.3     1  UNL1        0.0759
     29 N         141.7455  142.5058  160.1030 N.3     1  UNL1       -0.2738
     30 C         142.1621  143.4216  161.2156 C.3     1  UNL1        0.0721
     31 C         141.1539  143.2985  162.3194 C.3     1  UNL1        0.0187
     32 C         140.1142  142.3066  161.8890 C.3     1  UNL1        0.0174
     33 C         140.4798  141.8167  160.5192 C.3     1  UNL1        0.0576
     34 C         139.7141  140.8138  159.7081 C.3     1  UNL1        0.0173
@<TRIPOS>BOND
     1    23    24    1
     2    24    19    1
     3    19    20   am
     4    20    21    2
     5     1    20    1
     6     1     2    1
     7     2     3    1
     8     3     4    1
     9     4     5    1
    10     4     6    1
    11     6     7    1
    12     8     7    1
    13     8     9    1
    14     9    10   ar
    15    10    11   ar
    16    11    12   ar
    17    12    25    1
    18    25    26    1
    19    26    27    1
    20    27    28    1
    21    28    29    1
    22    29    30    1
    23    30    31    1
    24    31    32    1
    25    32    33    1
    26    33    34    1
    27    12    13   ar
    28    13    14   ar
    29    14    15    1
    30    15    16    1
    31    17    16    1
    32    17    18    1
    33    18     1    1
    34    18     4    1
    35    17     8    1
    36    14     9   ar
    37    33    29    1
    38    19    22    1
@<TRIPOS>MOLECULE
*****
 34 38 0 0 0
SMALL
GASTEIGER

@<TRIPOS>ATOM
      1 C         141.4125  142.3658  165.3322 C.3     1  UNL1        0.0765
      2 C         140.5731  142.6680  166.5381 C.3     1  UNL1        0.0091
      3 C         139.5806  143.7267  166.1584 C.3     1  UNL1        0.0005
      4 C         139.8065  144.0786  164.7180 C.3     1  UNL1        0.0005
      5 C         138.6941  144.8479  165.3667 C.3     1  UNL1        0.0000
      6 C         139.1276  145.0564  163.8052 C.3     1  UNL1        0.0003
      7 C         139.5808  145.1930  162.3819 C.3     1  UNL1        0.0043
      8 C         140.7130  144.3519  161.8713 C.3     1  UNL1        0.0220
      9 C         141.1662  144.4886  160.4479 C.ar    1  UNL1       -0.0263
     10 C         140.4873  145.4663  159.5352 C.ar    1  UNL1       -0.0015
     11 C         140.9405  145.6029  158.1119 C.ar    1  UNL1        0.0366
     12 C         142.0727  144.7619  157.6013 C.ar    1  UNL1        0.1382
     13 C         142.7517  143.7841  158.5140 C.ar    1  UNL1        0.0323
     14 C         142.2984  143.6475  159.9373 C.ar    1  UNL1       -0.0231
     15 C         142.9774  142.6698  160.8501 C.3     1  UNL1        0.0261
     16 C         142.5241  142.5331  162.2734 C.3     1  UNL1        0.0050
     17 C         141.3919  143.3742  162.7840 C.3     1  UNL1        0.0048
     18 C         140.9387  143.2375  164.2074 C.3     1  UNL1        0.0089
     19 N         142.2240  139.9129  165.0579 N.am    1  UNL1       -0.3043
     20 C         142.5295  141.3670  165.2635 C.2     1  UNL1        0.2220
     21 O         143.9522  141.8224  165.4003 O.2     1  UNL1       -0.2751
     22 H         141.2903  139.6140  164.9680 H       1  UNL1        0.1494
     23 C         143.8084  138.2246  166.2365 C.3     1  UNL1        0.0230
     24 C         143.3411  138.9142  164.9891 C.3     1  UNL1        0.0894
     25 O         142.5259  144.8985  156.1779 O.3     1  UNL1       -0.4754
     26 C         142.1640  143.8470  155.1713 C.3     1  UNL1        0.2068
     27 C         140.7845  143.2578  155.1652 C.3     1  UNL1        0.0646
     28 C         140.5324  141.9318  155.8194 C.3     1  UNL1        0.0759
     29 N         139.9254  141.8750  157.1899 N.3     1  UNL1       -0.2738
     30 C         138.7548  142.6810  157.6698 C.3     1  UNL1        0.0721
     31 C         138.4882  142.3064  159.0976 C.3     1  UNL1        0.0187
     32 C         139.4941  141.2690  159.5001 C.3     1  UNL1        0.0174
     33 C         140.3823  141.0024  158.3211 C.3     1  UNL1        0.0576
     34 C         141.5265  140.0333  158.2805 C.3     1  UNL1        0.0173
@<TRIPOS>BOND
     1    23    24    1
     2    24    19    1
     3    19    20   am
     4    20    21    2
     5     1    20    1
     6     1     2    1
     7     2     3    1
     8     3     4    1
     9     4     5    1
    10     4     6    1
    11     6     7    1
    12     8     7    1
    13     8     9    1
    14     9    10   ar
    15    10    11   ar
    16    11    12   ar
    17    12    25    1
    18    25    26    1
    19    26    27    1
    20    27    28    1
    21    28    29    1
    22    29    30    1
    23    30    31    1
    24    31    32    1
    25    32    33    1
    26    33    34    1
    27    12    13   ar
    28    13    14   ar
    29    14    15    1
    30    15    16    1
    31    17    16    1
    32    17    18    1
    33    18     1    1
    34    18     4    1
    35    17     8    1
    36    14     9   ar
    37    33    29    1
    38    19    22    1
@<TRIPOS>MOLECULE
*****
 34 38 0 0 0
SMALL
GASTEIGER

@<TRIPOS>ATOM
      1 C         143.1516  139.3475  157.6231 C.3     1  UNL1        0.0765
      2 C         143.5951  140.2551  156.5142 C.3     1  UNL1        0.0091
      3 C         144.1369  141.5103  157.1314 C.3     1  UNL1        0.0005
      4 C         144.0282  141.3785  158.6215 C.3     1  UNL1        0.0005
      5 C         144.6251  142.6770  158.1659 C.3     1  UNL1        0.0000
      6 C         144.4052  142.3029  159.7411 C.3     1  UNL1        0.0003
      7 C         144.1731  141.8907  161.1645 C.3     1  UNL1        0.0043
      8 C         143.5642  140.5539  161.4684 C.3     1  UNL1        0.0220
      9 C         143.3321  140.1417  162.8919 C.ar    1  UNL1       -0.0263
     10 C         143.7091  141.0661  164.0114 C.ar    1  UNL1       -0.0015
     11 C         143.4770  140.6538  165.4348 C.ar    1  UNL1        0.0366
     12 C         142.8681  139.3171  165.7387 C.ar    1  UNL1        0.1382
     13 C         142.4912  138.3927  164.6193 C.ar    1  UNL1        0.0323
     14 C         142.7232  138.8050  163.1959 C.ar    1  UNL1       -0.0231
     15 C         142.3463  137.8805  162.0763 C.3     1  UNL1        0.0261
     16 C         142.5783  138.2928  160.6529 C.3     1  UNL1        0.0050
     17 C         143.1873  139.6295  160.3489 C.3     1  UNL1        0.0048
     18 C         143.4193  140.0418  158.9254 C.3     1  UNL1        0.0089
     19 N         143.4000  136.8339  157.0144 N.am    1  UNL1       -0.3043
     20 C         142.5466  137.9848  157.4584 C.2     1  UNL1        0.2220
     21 O         141.0881  137.7730  157.7377 O.2     1  UNL1       -0.2751
     22 H         144.3573  136.9729  156.8311 H       1  UNL1        0.1494
     23 C         143.4604  134.2759  157.4647 C.3     1  UNL1        0.0230
     24 C         142.7949  135.4713  156.8497 C.3     1  UNL1        0.0894
     25 O         142.6360  138.9048  167.1623 O.3     1  UNL1       -0.4754
     26 C         142.3976  139.9461  168.2153 C.3     1  UNL1        0.2068
     27 C         141.1454  139.9054  169.0403 C.3     1  UNL1        0.0646
     28 C         139.8590  140.4329  168.4775 C.3     1  UNL1        0.0759
     29 N         139.6122  140.3857  166.9987 N.3     1  UNL1       -0.2738
     30 C         139.0359  139.2288  166.2375 C.3     1  UNL1        0.0721
     31 C         138.9658  139.6152  164.7898 C.3     1  UNL1        0.0187
     32 C         139.4988  141.0110  164.6564 C.3     1  UNL1        0.0174
     33 C         139.8982  141.4872  166.0215 C.3     1  UNL1        0.0576
     34 C         140.4813  142.8292  166.3515 C.3     1  UNL1        0.0173
@<TRIPOS>BOND
     1    23    24    1
     2    24    19    1
     3    19    20   am
     4    20    21    2
     5     1    20    1
     6     1     2    1
     7     2     3    1
     8     3     4    1
     9     4     5    1
    10     4     6    1
    11     6     7    1
    12     8     7    1
    13     8     9    1
    14     9    10   ar
    15    10    11   ar
    16    11    12   ar
    17    12    25    1
    18    25    26    1
    19    26    27    1
    20    27    28    1
    21    28    29    1
    22    29    30    1
    23    30    31    1
    24    31    32    1
    25    32    33    1
    26    33    34    1
    27    12    13   ar
    28    13    14   ar
    29    14    15    1
    30    15    16    1
    31    17    16    1
    32    17    18    1
    33    18     1    1
    34    18     4    1
    35    17     8    1
    36    14     9   ar
    37    33    29    1
    38    19    22    1
@<TRIPOS>MOLECULE
*****
 34 38 0 0 0
SMALL
GASTEIGER

@<TRIPOS>ATOM
      1 C         139.4949  142.3140  164.7231 C.3     1  UNL1        0.0765
      2 C         139.5239  143.6722  165.3591 C.3     1  UNL1        0.0091
      3 C         139.6113  144.6945  164.2650 C.3     1  UNL1        0.0005
      4 C         139.6363  143.9682  162.9529 C.3     1  UNL1        0.0005
      5 C         139.7026  145.4613  162.8250 C.3     1  UNL1        0.0000
      6 C         139.7153  144.4565  161.5367 C.3     1  UNL1        0.0003
      7 C         139.7223  143.4734  160.4038 C.3     1  UNL1        0.0043
      8 C         139.6504  142.0022  160.6869 C.3     1  UNL1        0.0220
      9 C         139.6575  141.0191  159.5539 C.ar    1  UNL1       -0.0263
     10 C         139.7365  141.5074  158.1378 C.ar    1  UNL1       -0.0015
     11 C         139.7435  140.5244  157.0049 C.ar    1  UNL1        0.0366
     12 C         139.6716  139.0531  157.2881 C.ar    1  UNL1        0.1382
     13 C         139.5927  138.5648  158.7042 C.ar    1  UNL1        0.0323
     14 C         139.5856  139.5478  159.8371 C.ar    1  UNL1       -0.0231
     15 C         139.5066  139.0596  161.2532 C.3     1  UNL1        0.0261
     16 C         139.4995  140.0426  162.3862 C.3     1  UNL1        0.0050
     17 C         139.5714  141.5139  162.1030 C.3     1  UNL1        0.0048
     18 C         139.5644  142.4970  163.2360 C.3     1  UNL1        0.0089
     19 N         138.1170  140.2454  165.4798 N.am    1  UNL1       -0.3043
     20 C         139.4112  141.0030  165.4473 C.2     1  UNL1        0.2220
     21 O         140.6217  140.4496  166.1389 O.2     1  UNL1       -0.2751
     22 H         137.3224  140.6086  165.0259 H       1  UNL1        0.1494
     23 C         138.5404  137.6831  165.5506 C.3     1  UNL1        0.0230
     24 C         138.0333  138.9344  166.2040 C.3     1  UNL1        0.0894
     25 O         139.6787  138.0700  156.1551 O.3     1  UNL1       -0.4754
     26 C         140.5796  136.8719  156.2073 C.3     1  UNL1        0.2068
     27 C         142.0652  137.0448  156.0921 C.3     1  UNL1        0.0646
     28 C         142.9085  137.1297  157.3296 C.3     1  UNL1        0.0759
     29 N         143.1073  138.4503  158.0126 N.3     1  UNL1       -0.2738
     30 C         143.3386  139.7679  157.3341 C.3     1  UNL1        0.0721
     31 C         143.4838  140.8171  158.3962 C.3     1  UNL1        0.0187
     32 C         143.3423  140.1478  159.7312 C.3     1  UNL1        0.0174
     33 C         143.1096  138.6851  159.4941 C.3     1  UNL1        0.0576
     34 C         142.9136  137.6406  160.5527 C.3     1  UNL1        0.0173
@<TRIPOS>BOND
     1    23    24    1
     2    24    19    1
     3    19    20   am
     4    20    21    2
     5     1    20    1
     6     1     2    1
     7     2     3    1
     8     3     4    1
     9     4     5    1
    10     4     6    1
    11     6     7    1
    12     8     7    1
    13     8     9    1
    14     9    10   ar
    15    10    11   ar
    16    11    12   ar
    17    12    25    1
    18    25    26    1
    19    26    27    1
    20    27    28    1
    21    28    29    1
    22    29    30    1
    23    30    31    1
    24    31    32    1
    25    32    33    1
    26    33    34    1
    27    12    13   ar
    28    13    14   ar
    29    14    15    1
    30    15    16    1
    31    17    16    1
    32    17    18    1
    33    18     1    1
    34    18     4    1
    35    17     8    1
    36    14     9   ar
    37    33    29    1
    38    19    22    1
@<TRIPOS>MOLECULE
*****
 34 38 0 0 0
SMALL
GASTEIGER

@<TRIPOS>ATOM
      1 C         143.2082  143.6514  155.3823 C.3     1  UNL1        0.0765
      2 C         142.8860  144.1823  154.0169 C.3     1  UNL1        0.0091
      3 C         141.8162  145.2233  154.1650 C.3     1  UNL1        0.0005
      4 C         141.4773  145.3357  155.6217 C.3     1  UNL1        0.0005
      5 C         140.6881  146.2566  154.7390 C.3     1  UNL1        0.0000
      6 C         140.4964  146.1973  156.3605 C.3     1  UNL1        0.0003
      7 C         140.3759  146.0873  157.8516 C.3     1  UNL1        0.0043
      8 C         141.2362  145.1158  158.6040 C.3     1  UNL1        0.0220
      9 C         141.1156  145.0059  160.0951 C.ar    1  UNL1       -0.0263
     10 C         140.1348  145.8674  160.8338 C.ar    1  UNL1       -0.0015
     11 C         140.0142  145.7575  162.3249 C.ar    1  UNL1        0.0366
     12 C         140.8745  144.7860  163.0772 C.ar    1  UNL1        0.1382
     13 C         141.8553  143.9245  162.3386 C.ar    1  UNL1        0.0323
     14 C         141.9759  144.0344  160.8475 C.ar    1  UNL1       -0.0231
     15 C         142.9568  143.1729  160.1088 C.3     1  UNL1        0.0261
     16 C         143.0773  143.2828  158.6177 C.3     1  UNL1        0.0050
     17 C         142.2170  144.2543  157.8653 C.3     1  UNL1        0.0048
     18 C         142.3376  144.3642  156.3741 C.3     1  UNL1        0.0089
     19 N         145.6766  142.9516  155.7919 N.am    1  UNL1       -0.3043
     20 C         144.2229  142.5933  155.7000 C.2     1  UNL1        0.2220
     21 O         143.7839  141.1769  155.9259 O.2     1  UNL1       -0.2751
     22 H         145.9647  143.8813  155.6436 H       1  UNL1        0.1494
     23 C         148.1552  142.2050  156.0120 C.3     1  UNL1        0.0230
     24 C         146.6912  141.8935  156.1096 C.3     1  UNL1        0.0894
     25 O         140.7539  144.6760  164.5684 O.3     1  UNL1       -0.4754
     26 C         139.7272  143.7646  165.1727 C.3     1  UNL1        0.2068
     27 C         138.3304  143.7415  164.6263 C.3     1  UNL1        0.0646
     28 C         137.8270  142.5262  163.9056 C.3     1  UNL1        0.0759
     29 N         138.4461  142.1172  162.6020 N.3     1  UNL1       -0.2738
     30 C         138.1062  142.6742  161.2513 C.3     1  UNL1        0.0721
     31 C         138.9638  141.9807  160.2347 C.3     1  UNL1        0.0187
     32 C         139.8337  140.9951  160.9571 C.3     1  UNL1        0.0174
     33 C         139.5138  141.0795  162.4201 C.3     1  UNL1        0.0576
     34 C         140.1499  140.2685  163.5099 C.3     1  UNL1        0.0173
@<TRIPOS>BOND
     1    23    24    1
     2    24    19    1
     3    19    20   am
     4    20    21    2
     5     1    20    1
     6     1     2    1
     7     2     3    1
     8     3     4    1
     9     4     5    1
    10     4     6    1
    11     6     7    1
    12     8     7    1
    13     8     9    1
    14     9    10   ar
    15    10    11   ar
    16    11    12   ar
    17    12    25    1
    18    25    26    1
    19    26    27    1
    20    27    28    1
    21    28    29    1
    22    29    30    1
    23    30    31    1
    24    31    32    1
    25    32    33    1
    26    33    34    1
    27    12    13   ar
    28    13    14   ar
    29    14    15    1
    30    15    16    1
    31    17    16    1
    32    17    18    1
    33    18     1    1
    34    18     4    1
    35    17     8    1
    36    14     9   ar
    37    33    29    1
    38    19    22    1
