@<TRIPOS>MOLECULE
*****
 24 26 0 0 0
SMALL
GASTEIGER

@<TRIPOS>ATOM
      1 C         138.7457  139.4338  165.4737 C.ar    1  UNL1        0.0252
      2 C         138.1686  140.5942  164.7185 C.ar    1  UNL1       -0.0009
      3 C         137.9026  140.4739  163.2473 C.ar    1  UNL1        0.0210
      4 C         138.2137  139.1931  162.5311 C.ar    1  UNL1        0.1397
      5 F         137.9477  139.0728  161.0598 F       1  UNL1       -0.2044
      6 C         138.7909  138.0327  163.2863 C.ar    1  UNL1        0.0587
      7 C         139.0569  138.1530  164.7575 C.ar    1  UNL1        0.1401
      8 F         139.6340  136.9926  165.5128 F       1  UNL1       -0.2044
      9 C         137.7015  138.8244  166.9760 C.3     1  UNL1        0.0291
     10 C         139.0117  139.5541  166.9451 C.3     1  UNL1        0.1080
     11 C         140.2295  140.2419  166.4031 C.3     1  UNL1        0.0388
     12 C         141.2584  140.7966  167.3432 C.3     1  UNL1        0.0671
     13 S         141.0693  140.6635  168.8253 S.3     1  UNL1       -0.0807
     14 C         139.8515  139.9757  169.3673 C.2     1  UNL1        0.1482
     15 N         139.6624  139.8425  170.8494 N.pl3   1  UNL1       -0.3380
     16 N         138.8227  139.4209  168.4272 N.2     1  UNL1       -0.2509
     17 H         140.3376  140.2066  171.4664 H       1  UNL1        0.1442
     18 H         138.8631  139.3911  171.2051 H       1  UNL1        0.1442
     19 C         137.3254  141.6343  162.4920 C.3     1  UNL1        0.0978
     20 N         138.1167  142.8998  162.3422 N.3     1  UNL1       -0.2948
     21 H         137.6401  143.4634  161.6382 H       1  UNL1        0.1235
     22 C         138.3415  143.7888  163.5292 C.3     1  UNL1        0.0543
     23 C         139.1949  144.7746  164.2708 C.3     1  UNL1        0.0171
     24 C         137.8774  144.3430  164.8435 C.3     1  UNL1        0.0171
@<TRIPOS>BOND
     1    10     9    1
     2    10     1    1
     3     1     2   ar
     4     2     3   ar
     5     3    19    1
     6    19    20    1
     7    20    22    1
     8    22    23    1
     9    23    24    1
    10     3     4   ar
    11     4     5    1
    12     4     6   ar
    13     6     7   ar
    14     7     8    1
    15    10    11    1
    16    11    12    1
    17    12    13    1
    18    13    14    1
    19    14    15    1
    20    14    16    2
    21    16    10    1
    22     7     1   ar
    23    24    22    1
    24    20    21    1
    25    15    17    1
    26    15    18    1
@<TRIPOS>MOLECULE
*****
 24 26 0 0 0
SMALL
GASTEIGER

@<TRIPOS>ATOM
      1 C         142.1306  141.8667  166.2848 C.ar    1  UNL1        0.0252
      2 C         142.5777  142.1316  167.6918 C.ar    1  UNL1       -0.0009
      3 C         142.8411  140.9857  168.6233 C.ar    1  UNL1        0.0210
      4 C         142.6574  139.5751  168.1477 C.ar    1  UNL1        0.1397
      5 F         142.9209  138.4292  169.0793 F       1  UNL1       -0.2044
      6 C         142.2103  139.3102  166.7407 C.ar    1  UNL1        0.0587
      7 C         141.9469  140.4560  165.8092 C.ar    1  UNL1        0.1401
      8 F         141.4997  140.1911  164.4020 F       1  UNL1       -0.2044
      9 C         140.4840  142.7890  165.8889 C.3     1  UNL1        0.0291
     10 C         141.8672  143.0125  165.3532 C.3     1  UNL1        0.1080
     11 C         143.3418  142.8381  165.1411 C.3     1  UNL1        0.0388
     12 C         144.0726  143.7319  164.1835 C.3     1  UNL1        0.0671
     13 S         143.3288  144.8001  163.4380 S.3     1  UNL1       -0.0807
     14 C         141.8542  144.9745  163.6501 C.2     1  UNL1        0.1482
     15 N         141.1103  146.0427  162.9046 N.pl3   1  UNL1       -0.3380
     16 N         141.1233  144.0807  164.6077 N.2     1  UNL1       -0.2509
     17 H         141.5900  146.6293  162.2761 H       1  UNL1        0.1442
     18 H         140.1425  146.1571  163.0438 H       1  UNL1        0.1442
     19 C         143.2883  141.2506  170.0304 C.3     1  UNL1        0.0978
     20 N         142.2789  141.5898  171.0869 N.3     1  UNL1       -0.2948
     21 H         142.6327  142.4097  171.5798 H       1  UNL1        0.1235
     22 C         140.8622  141.8951  170.7001 C.3     1  UNL1        0.0543
     23 C         139.7195  142.8628  170.6115 C.3     1  UNL1        0.0171
     24 C         139.5509  141.4562  170.1188 C.3     1  UNL1        0.0171
@<TRIPOS>BOND
     1    10     9    1
     2    10     1    1
     3     1     2   ar
     4     2     3   ar
     5     3    19    1
     6    19    20    1
     7    20    22    1
     8    22    23    1
     9    23    24    1
    10     3     4   ar
    11     4     5    1
    12     4     6   ar
    13     6     7   ar
    14     7     8    1
    15    10    11    1
    16    11    12    1
    17    12    13    1
    18    13    14    1
    19    14    15    1
    20    14    16    2
    21    16    10    1
    22     7     1   ar
    23    24    22    1
    24    20    21    1
    25    15    17    1
    26    15    18    1
@<TRIPOS>MOLECULE
*****
 24 26 0 0 0
SMALL
GASTEIGER

@<TRIPOS>ATOM
      1 C         140.6957  142.4326  166.5345 C.ar    1  UNL1        0.0252
      2 C         139.6040  143.2451  165.9037 C.ar    1  UNL1       -0.0009
      3 C         139.8775  144.0255  164.6523 C.ar    1  UNL1        0.0210
      4 C         141.2427  143.9934  164.0316 C.ar    1  UNL1        0.1397
      5 F         141.5161  144.7739  162.7801 F       1  UNL1       -0.2044
      6 C         142.3344  143.1809  164.6624 C.ar    1  UNL1        0.0587
      7 C         142.0609  142.4005  165.9138 C.ar    1  UNL1        0.1401
      8 F         143.1526  141.5879  166.5447 F       1  UNL1       -0.2044
      9 C         140.0733  140.6207  166.7543 C.3     1  UNL1        0.0291
     10 C         140.4223  141.6521  167.7860 C.3     1  UNL1        0.1080
     11 C         140.8662  142.9546  168.3830 C.3     1  UNL1        0.0388
     12 C         140.9154  143.1184  169.8732 C.3     1  UNL1        0.0671
     13 S         140.5208  141.9797  170.7664 S.3     1  UNL1       -0.0807
     14 C         140.0769  140.6773  170.1694 C.2     1  UNL1        0.1482
     15 N         139.6822  139.5386  171.0625 N.pl3   1  UNL1       -0.3380
     16 N         140.0276  140.5134  168.6792 N.2     1  UNL1       -0.2509
     17 H         139.7146  139.6461  172.0406 H       1  UNL1        0.1442
     18 H         139.3909  138.6837  170.6706 H       1  UNL1        0.1442
     19 C         138.7858  144.8381  164.0215 C.3     1  UNL1        0.0978
     20 N         138.0859  144.3307  162.7956 N.3     1  UNL1       -0.2948
     21 H         138.6363  144.6384  161.9938 H       1  UNL1        0.1235
     22 C         137.8512  142.8596  162.6208 C.3     1  UNL1        0.0543
     23 C         138.0046  141.6069  161.8100 C.3     1  UNL1        0.0171
     24 C         137.2914  141.5640  163.1289 C.3     1  UNL1        0.0171
@<TRIPOS>BOND
     1    10     9    1
     2    10     1    1
     3     1     2   ar
     4     2     3   ar
     5     3    19    1
     6    19    20    1
     7    20    22    1
     8    22    23    1
     9    23    24    1
    10     3     4   ar
    11     4     5    1
    12     4     6   ar
    13     6     7   ar
    14     7     8    1
    15    10    11    1
    16    11    12    1
    17    12    13    1
    18    13    14    1
    19    14    15    1
    20    14    16    2
    21    16    10    1
    22     7     1   ar
    23    24    22    1
    24    20    21    1
    25    15    17    1
    26    15    18    1
@<TRIPOS>MOLECULE
*****
 24 26 0 0 0
SMALL
GASTEIGER

@<TRIPOS>ATOM
      1 C         139.9686  141.0788  166.5699 C.ar    1  UNL1        0.0252
      2 C         140.0733  142.5534  166.3157 C.ar    1  UNL1       -0.0009
      3 C         139.2314  143.1926  165.2515 C.ar    1  UNL1        0.0210
      4 C         138.2847  142.3572  164.4416 C.ar    1  UNL1        0.1397
      5 F         137.4427  142.9965  163.3774 F       1  UNL1       -0.2044
      6 C         138.1799  140.8827  164.6959 C.ar    1  UNL1        0.0587
      7 C         139.0219  140.2435  165.7600 C.ar    1  UNL1        0.1401
      8 F         138.9171  138.7689  166.0143 F       1  UNL1       -0.2044
      9 C         141.7011  140.2415  166.4434 C.3     1  UNL1        0.0291
     10 C         140.8105  140.4396  167.6342 C.3     1  UNL1        0.1080
     11 C         139.6276  140.8596  168.4552 C.3     1  UNL1        0.0388
     12 C         139.5959  140.5716  169.9270 C.3     1  UNL1        0.0671
     13 S         140.7472  139.8636  170.5776 S.3     1  UNL1       -0.0807
     14 C         141.9301  139.4435  169.7566 C.2     1  UNL1        0.1482
     15 N         143.0814  138.7354  170.4072 N.pl3   1  UNL1       -0.3380
     16 N         141.9618  139.7315  168.2848 N.2     1  UNL1       -0.2509
     17 H         143.0606  138.5464  171.3732 H       1  UNL1        0.1442
     18 H         143.8577  138.4597  169.8683 H       1  UNL1        0.1442
     19 C         139.3361  144.6672  164.9972 C.3     1  UNL1        0.0978
     20 N         140.2434  145.1796  163.9182 N.3     1  UNL1       -0.2948
     21 H         140.1871  146.1977  163.9451 H       1  UNL1        0.1235
     22 C         141.7010  144.8259  163.9333 C.3     1  UNL1        0.0543
     23 C         143.1256  145.1744  163.6185 C.3     1  UNL1        0.0171
     24 C         142.8011  143.8649  164.2740 C.3     1  UNL1        0.0171
@<TRIPOS>BOND
     1    10     9    1
     2    10     1    1
     3     1     2   ar
     4     2     3   ar
     5     3    19    1
     6    19    20    1
     7    20    22    1
     8    22    23    1
     9    23    24    1
    10     3     4   ar
    11     4     5    1
    12     4     6   ar
    13     6     7   ar
    14     7     8    1
    15    10    11    1
    16    11    12    1
    17    12    13    1
    18    13    14    1
    19    14    15    1
    20    14    16    2
    21    16    10    1
    22     7     1   ar
    23    24    22    1
    24    20    21    1
    25    15    17    1
    26    15    18    1
@<TRIPOS>MOLECULE
*****
 24 26 0 0 0
SMALL
GASTEIGER

@<TRIPOS>ATOM
      1 C         140.4818  142.1847  166.5887 C.ar    1  UNL1        0.0252
      2 C         139.9642  143.4038  165.8846 C.ar    1  UNL1       -0.0009
      3 C         138.8407  143.2799  164.8985 C.ar    1  UNL1        0.0210
      4 C         138.2349  141.9370  164.6165 C.ar    1  UNL1        0.1397
      5 F         137.1113  141.8131  163.6304 F       1  UNL1       -0.2044
      6 C         138.7525  140.7179  165.3207 C.ar    1  UNL1        0.0587
      7 C         139.8760  140.8418  166.3068 C.ar    1  UNL1        0.1401
      8 F         140.3936  139.6227  167.0110 F       1  UNL1       -0.2044
      9 C         142.3885  142.1045  166.3119 C.3     1  UNL1        0.0291
     10 C         141.6053  142.3085  167.5749 C.3     1  UNL1        0.1080
     11 C         140.4320  142.4695  168.4953 C.3     1  UNL1        0.0388
     12 C         140.6541  142.6835  169.9632 C.3     1  UNL1        0.0671
     13 S         142.0496  142.7365  170.5107 S.3     1  UNL1       -0.0807
     14 C         143.2230  142.5755  169.5903 C.2     1  UNL1        0.1482
     15 N         144.6185  142.6284  170.1378 N.pl3   1  UNL1       -0.3380
     16 N         143.0009  142.3615  168.1224 N.2     1  UNL1       -0.2509
     17 H         144.7643  142.7689  171.1013 H       1  UNL1        0.1442
     18 H         145.3886  142.5228  169.5337 H       1  UNL1        0.1442
     19 C         138.3230  144.4990  164.1942 C.3     1  UNL1        0.0978
     20 N         138.9557  144.9491  162.9109 N.3     1  UNL1       -0.2948
     21 H         138.6236  145.8975  162.7356 H       1  UNL1        0.1235
     22 C         140.4498  144.9829  162.7827 C.3     1  UNL1        0.0543
     23 C         141.6909  144.7267  161.9802 C.3     1  UNL1        0.0171
     24 C         141.7966  145.2976  163.3632 C.3     1  UNL1        0.0171
@<TRIPOS>BOND
     1    10     9    1
     2    10     1    1
     3     1     2   ar
     4     2     3   ar
     5     3    19    1
     6    19    20    1
     7    20    22    1
     8    22    23    1
     9    23    24    1
    10     3     4   ar
    11     4     5    1
    12     4     6   ar
    13     6     7   ar
    14     7     8    1
    15    10    11    1
    16    11    12    1
    17    12    13    1
    18    13    14    1
    19    14    15    1
    20    14    16    2
    21    16    10    1
    22     7     1   ar
    23    24    22    1
    24    20    21    1
    25    15    17    1
    26    15    18    1
@<TRIPOS>MOLECULE
*****
 24 26 0 0 0
SMALL
GASTEIGER

@<TRIPOS>ATOM
      1 C         140.6777  141.5885  166.7553 C.ar    1  UNL1        0.0252
      2 C         139.9431  140.2874  166.8872 C.ar    1  UNL1       -0.0009
      3 C         138.8343  139.9522  165.9343 C.ar    1  UNL1        0.0210
      4 C         138.4601  140.9181  164.8494 C.ar    1  UNL1        0.1397
      5 F         137.3512  140.5829  163.8965 F       1  UNL1       -0.2044
      6 C         139.1947  142.2193  164.7175 C.ar    1  UNL1        0.0587
      7 C         140.3035  142.5544  165.6704 C.ar    1  UNL1        0.1401
      8 F         141.0381  143.8556  165.5386 F       1  UNL1       -0.2044
      9 C         142.5793  141.3142  166.5902 C.3     1  UNL1        0.0291
     10 C         141.7866  141.9238  167.7083 C.3     1  UNL1        0.1080
     11 C         140.6088  142.4168  168.4954 C.3     1  UNL1        0.0388
     12 C         140.8151  143.0335  169.8471 C.3     1  UNL1        0.0671
     13 S         142.1993  143.1570  170.4117 S.3     1  UNL1       -0.0807
     14 C         143.3771  142.6639  169.6246 C.2     1  UNL1        0.1482
     15 N         144.7613  142.7875  170.1893 N.pl3   1  UNL1       -0.3380
     16 N         143.1708  142.0473  168.2729 N.2     1  UNL1       -0.2509
     17 H         144.8967  143.1922  171.0765 H       1  UNL1        0.1442
     18 H         145.5344  142.4639  169.6727 H       1  UNL1        0.1442
     19 C         138.0997  138.6510  166.0662 C.3     1  UNL1        0.0978
     20 N         138.5790  137.4403  165.3216 N.3     1  UNL1       -0.2948
     21 H         137.7933  136.7914  165.2778 H       1  UNL1        0.1235
     22 C         139.1046  137.5790  163.9236 C.3     1  UNL1        0.0543
     23 C         140.2505  137.5379  162.9565 C.3     1  UNL1        0.0171
     24 C         138.8690  137.8602  162.4692 C.3     1  UNL1        0.0171
@<TRIPOS>BOND
     1    10     9    1
     2    10     1    1
     3     1     2   ar
     4     2     3   ar
     5     3    19    1
     6    19    20    1
     7    20    22    1
     8    22    23    1
     9    23    24    1
    10     3     4   ar
    11     4     5    1
    12     4     6   ar
    13     6     7   ar
    14     7     8    1
    15    10    11    1
    16    11    12    1
    17    12    13    1
    18    13    14    1
    19    14    15    1
    20    14    16    2
    21    16    10    1
    22     7     1   ar
    23    24    22    1
    24    20    21    1
    25    15    17    1
    26    15    18    1
@<TRIPOS>MOLECULE
*****
 24 26 0 0 0
SMALL
GASTEIGER

@<TRIPOS>ATOM
      1 C         140.5377  142.3021  166.3942 C.ar    1  UNL1        0.0252
      2 C         140.5468  142.9019  167.7690 C.ar    1  UNL1       -0.0009
      3 C         140.0511  142.1042  168.9386 C.ar    1  UNL1        0.0210
      4 C         139.5464  140.7067  168.7334 C.ar    1  UNL1        0.1397
      5 F         139.0507  139.9090  169.9030 F       1  UNL1       -0.2044
      6 C         139.5373  140.1068  167.3586 C.ar    1  UNL1        0.0587
      7 C         140.0330  140.9045  166.1890 C.ar    1  UNL1        0.1401
      8 F         140.0239  140.3047  164.8141 F       1  UNL1       -0.2044
      9 C         142.3021  142.4059  165.6231 C.3     1  UNL1        0.0291
     10 C         141.0334  143.0998  165.2246 C.3     1  UNL1        0.1080
     11 C         139.5925  143.5167  165.2323 C.3     1  UNL1        0.0388
     12 C         139.0879  144.4902  164.2088 C.3     1  UNL1        0.0671
     13 S         140.0243  145.0469  163.1775 S.3     1  UNL1       -0.0807
     14 C         141.4651  144.6300  163.1698 C.2     1  UNL1        0.1482
     15 N         142.4015  145.1867  162.1386 N.pl3   1  UNL1       -0.3380
     16 N         141.9697  143.6565  164.1933 N.2     1  UNL1       -0.2509
     17 H         142.0703  145.8257  161.4668 H       1  UNL1        0.1442
     18 H         143.3472  144.9131  162.1335 H       1  UNL1        0.1442
     19 C         140.0602  142.7040  170.3135 C.3     1  UNL1        0.0978
     20 N         141.3516  142.8379  171.0648 N.3     1  UNL1       -0.2948
     21 H         141.2173  142.3782  171.9653 H       1  UNL1        0.1235
     22 C         142.6190  142.2868  170.4819 C.3     1  UNL1        0.0543
     23 C         143.4248  141.1188  169.9957 C.3     1  UNL1        0.0171
     24 C         144.0085  142.5000  169.9586 C.3     1  UNL1        0.0171
@<TRIPOS>BOND
     1    10     9    1
     2    10     1    1
     3     1     2   ar
     4     2     3   ar
     5     3    19    1
     6    19    20    1
     7    20    22    1
     8    22    23    1
     9    23    24    1
    10     3     4   ar
    11     4     5    1
    12     4     6   ar
    13     6     7   ar
    14     7     8    1
    15    10    11    1
    16    11    12    1
    17    12    13    1
    18    13    14    1
    19    14    15    1
    20    14    16    2
    21    16    10    1
    22     7     1   ar
    23    24    22    1
    24    20    21    1
    25    15    17    1
    26    15    18    1
@<TRIPOS>MOLECULE
*****
 24 26 0 0 0
SMALL
GASTEIGER

@<TRIPOS>ATOM
      1 C         141.6693  141.8322  166.7083 C.ar    1  UNL1        0.0252
      2 C         140.2267  141.6223  166.3550 C.ar    1  UNL1       -0.0009
      3 C         139.6724  142.2045  165.0887 C.ar    1  UNL1        0.0210
      4 C         140.5605  142.9967  164.1757 C.ar    1  UNL1        0.1397
      5 F         140.0061  143.5790  162.9093 F       1  UNL1       -0.2044
      6 C         142.0031  143.2066  164.5290 C.ar    1  UNL1        0.0587
      7 C         142.5575  142.6244  165.7953 C.ar    1  UNL1        0.1401
      8 F         144.0001  142.8343  166.1487 F       1  UNL1       -0.2044
      9 C         142.6169  140.1784  167.0013 C.3     1  UNL1        0.0291
     10 C         142.2238  141.2499  167.9747 C.3     1  UNL1        0.1080
     11 C         141.6381  142.5236  168.5082 C.3     1  UNL1        0.0388
     12 C         141.7435  142.8429  169.9700 C.3     1  UNL1        0.0671
     13 S         142.4345  141.8885  170.8983 S.3     1  UNL1       -0.0807
     14 C         143.0201  140.6149  170.3648 C.2     1  UNL1        0.1482
     15 N         143.7111  139.6604  171.2931 N.pl3   1  UNL1       -0.3380
     16 N         142.9148  140.2955  168.9030 N.2     1  UNL1       -0.2509
     17 H         143.7802  139.8700  172.2525 H       1  UNL1        0.1442
     18 H         144.0955  138.8245  170.9429 H       1  UNL1        0.1442
     19 C         138.2297  141.9946  164.7353 C.3     1  UNL1        0.0978
     20 N         137.7363  140.6232  164.3807 N.3     1  UNL1       -0.2948
     21 H         138.0997  140.4107  163.4516 H       1  UNL1        0.1235
     22 C         138.0764  139.4540  165.2566 C.3     1  UNL1        0.0543
     23 C         138.8101  138.1640  165.4742 C.3     1  UNL1        0.0171
     24 C         137.9317  138.7189  166.5560 C.3     1  UNL1        0.0171
@<TRIPOS>BOND
     1    10     9    1
     2    10     1    1
     3     1     2   ar
     4     2     3   ar
     5     3    19    1
     6    19    20    1
     7    20    22    1
     8    22    23    1
     9    23    24    1
    10     3     4   ar
    11     4     5    1
    12     4     6   ar
    13     6     7   ar
    14     7     8    1
    15    10    11    1
    16    11    12    1
    17    12    13    1
    18    13    14    1
    19    14    15    1
    20    14    16    2
    21    16    10    1
    22     7     1   ar
    23    24    22    1
    24    20    21    1
    25    15    17    1
    26    15    18    1
@<TRIPOS>MOLECULE
*****
 24 26 0 0 0
SMALL
GASTEIGER

@<TRIPOS>ATOM
      1 C         140.3687  141.0342  165.8451 C.ar    1  UNL1        0.0252
      2 C         139.7205  140.9099  167.1921 C.ar    1  UNL1       -0.0009
      3 C         140.4490  140.2337  168.3154 C.ar    1  UNL1        0.0210
      4 C         141.8257  139.6817  168.0918 C.ar    1  UNL1        0.1397
      5 F         142.5542  139.0054  169.2152 F       1  UNL1       -0.2044
      6 C         142.4739  139.8059  166.7448 C.ar    1  UNL1        0.0587
      7 C         141.7454  140.4822  165.6215 C.ar    1  UNL1        0.1401
      8 F         142.3936  140.6064  164.2744 F       1  UNL1       -0.2044
      9 C         140.3932  142.8792  165.2848 C.3     1  UNL1        0.0291
     10 C         139.6402  141.7104  164.7217 C.3     1  UNL1        0.1080
     11 C         139.1403  140.3069  164.5488 C.3     1  UNL1        0.0388
     12 C         138.1733  139.9854  163.4480 C.3     1  UNL1        0.0671
     13 S         137.7063  141.0676  162.5202 S.3     1  UNL1       -0.0807
     14 C         138.2063  142.4712  162.6931 C.2     1  UNL1        0.1482
     15 N         137.7393  143.5534  161.7653 N.pl3   1  UNL1       -0.3380
     16 N         139.1732  142.7926  163.7939 N.2     1  UNL1       -0.2509
     17 H         137.1047  143.3424  161.0428 H       1  UNL1        0.1442
     18 H         138.0675  144.4746  161.8788 H       1  UNL1        0.1442
     19 C         139.8009  140.1094  169.6625 C.3     1  UNL1        0.0978
     20 N         139.5936  141.3293  170.5104 N.3     1  UNL1       -0.2948
     21 H         139.8082  141.0603  171.4706 H       1  UNL1        0.1235
     22 C         140.3708  142.5805  170.2272 C.3     1  UNL1        0.0543
     23 C         141.6846  143.2773  170.0313 C.3     1  UNL1        0.0171
     24 C         140.4033  144.0508  169.9324 C.3     1  UNL1        0.0171
@<TRIPOS>BOND
     1    10     9    1
     2    10     1    1
     3     1     2   ar
     4     2     3   ar
     5     3    19    1
     6    19    20    1
     7    20    22    1
     8    22    23    1
     9    23    24    1
    10     3     4   ar
    11     4     5    1
    12     4     6   ar
    13     6     7   ar
    14     7     8    1
    15    10    11    1
    16    11    12    1
    17    12    13    1
    18    13    14    1
    19    14    15    1
    20    14    16    2
    21    16    10    1
    22     7     1   ar
    23    24    22    1
    24    20    21    1
    25    15    17    1
    26    15    18    1
