@<TRIPOS>MOLECULE
*****
 39 41 0 0 0
SMALL
GASTEIGER

@<TRIPOS>ATOM
      1 C         143.0778  139.4038  165.4366 C.3     0  UNK0        0.1497
      2 N         144.0895  140.2526  164.7252 N.am    0  UNK0       -0.2826
      3 C         143.6371  141.3835  163.8497 C.2     0  UNK0        0.3013
      4 O         142.1730  141.6656  163.6856 O.2     0  UNK0       -0.2528
      5 N         144.6487  142.2323  163.1384 N.am    1  LYS1       -0.2857
      6 H         145.0504  140.0675  164.8329 H       0  UNK0        0.1514
      7 H         145.6097  142.0472  163.2461 H       1  LYS1        0.1513
      8 CA        144.1963  143.3632  162.2629 C.3     1  LYS1        0.1095
      9 C         143.8212  143.1019  160.8343 C.2     1  LYS1        0.0682
     10 O         142.8577  144.0131  160.1332 O.co2   1  LYS1       -0.5475
     11 OXT       144.4095  141.9294  160.1067 O.co2   1  LYS1       -0.5475
     12 CB        144.1190  144.7554  162.8161 C.3     1  LYS1        0.0254
     13 CG        142.9946  145.1368  163.7326 C.3     1  LYS1        0.0035
     14 CD        141.5740  145.0248  163.2640 C.3     1  LYS1        0.0169
     15 CE        140.4767  144.7624  164.2524 C.3     1  LYS1        0.0651
     16 NZ        140.5049  143.5197  165.0919 N.3     1  LYS1       -0.3211
     17 HZ1       140.3939  142.7019  164.4925 H       1  LYS1        0.1189
     18 HZ2       139.7435  143.5501  165.7700 H       1  LYS1        0.1189
     19 N         141.2997  140.8145  166.7008 N.am    0  UNK0       -0.3046
     20 C         142.4721  139.8792  166.7239 C.2     0  UNK0        0.2403
     21 O         143.0389  139.4192  168.0343 O.2     0  UNK0       -0.2733
     22 H         140.9277  141.1163  165.8407 H       0  UNK0        0.1494
     23 C         138.3304  140.3839  170.4403 C.3     0  UNK0        0.0001
     24 C         139.3331  141.4065  169.9944 C.3     0  UNK0        0.0016
     25 C         139.6709  142.6807  170.7101 C.3     0  UNK0        0.0001
     26 C         140.7206  143.3961  169.9125 C.3     0  UNK0        0.0016
     27 C         141.0317  142.5640  168.7039 C.3     0  UNK0        0.0180
     28 C         140.6940  141.2898  167.9881 C.3     0  UNK0        0.0715
     29 C         139.6442  140.5743  168.7857 C.3     0  UNK0        0.0196
     30 C         140.1742  141.3343  168.7544 C.3     0  UNK0        0.0016
     31 C         140.6546  140.6925  167.4867 C.3     0  UNK0        0.0001
     32 C         139.6690  140.0207  168.2355 C.3     0  UNK0        0.0001
     33 C         142.6718  138.0796  164.8606 C.3     0  UNK0        0.0290
     34 C         141.3706  137.9485  164.1260 C.3     0  UNK0        0.0021
     35 C         140.0935  137.7612  164.8903 C.3     0  UNK0        0.0001
     36 C         138.7922  137.6301  164.1558 C.3     0  UNK0        0.0000
     37 C         138.7681  137.6863  162.6569 C.3     0  UNK0        0.0000
     38 C         140.0451  137.8736  161.8928 C.3     0  UNK0        0.0000
     39 C         141.3464  138.0047  162.6273 C.3     0  UNK0        0.0001
@<TRIPOS>UNITY_ATOM_ATTR
10 1
charge -1
@<TRIPOS>BOND
     1    23    24    1
     2    24    25    1
     3    25    26    1
     4    26    27    1
     5    27    28    1
     6    28    19    1
     7    19    20   am
     8    20    21    2
     9    20     1    1
    10     1    33    1
    11    33    34    1
    12    34    35    1
    13    35    36    1
    14    36    37    1
    15    37    38    1
    16    38    39    1
    17     1     2    1
    18     2     3   am
    19     3     4    2
    20     3     5   am
    21     5     8    1
    22     8    12    1
    23    12    13    1
    24    13    14    1
    25    14    15    1
    26    15    16    1
    27     8     9    1
    28     9    10   ar
    29     9    11   ar
    30    28    29    1
    31    27    30    1
    32    30    31    1
    33    30    32    1
    34    29    24    1
    35    30    24    1
    36    39    34    1
    37    19    22    1
    38     2     6    1
    39     5     7    1
    40    16    17    1
    41    16    18    1
@<TRIPOS>MOLECULE
*****
 39 41 0 0 0
SMALL
GASTEIGER

@<TRIPOS>ATOM
      1 C         144.0153  142.6104  164.5704 C.3     0  UNK0        0.1497
      2 N         143.5921  143.9028  163.9375 N.am    0  UNK0       -0.2826
      3 C         142.3394  143.9600  163.1143 C.2     0  UNK0        0.3013
      4 O         141.5101  142.7247  162.9239 O.2     0  UNK0       -0.2528
      5 N         141.9162  145.2524  162.4814 N.am    1  LYS1       -0.2857
      6 H         144.1364  144.7136  164.0625 H       0  UNK0        0.1514
      7 H         142.4605  146.0631  162.6064 H       1  LYS1        0.1513
      8 CA        140.6636  145.3095  161.6582 C.3     1  LYS1        0.1095
      9 C         140.7093  144.9678  160.1984 C.2     1  LYS1        0.0682
     10 O         141.8907  145.3761  159.3692 O.co2   1  LYS1       -0.5475
     11 OXT       139.5735  144.2178  159.5677 O.co2   1  LYS1       -0.5475
     12 CB        139.3652  145.7083  162.2949 C.3     1  LYS1        0.0254
     13 CG        138.6646  144.7631  163.2253 C.3     1  LYS1        0.0035
     14 CD        137.9457  143.5660  162.6770 C.3     1  LYS1        0.0169
     15 CE        137.6426  142.3994  163.5697 C.3     1  LYS1        0.0651
     16 NZ        136.7681  141.2850  163.0765 N.3     1  LYS1       -0.3211
     17 HZ1       135.8221  141.6359  162.9271 H       1  LYS1        0.1189
     18 HZ2       136.7476  140.5367  163.7694 H       1  LYS1        0.1189
     19 N         142.4783  141.0718  165.9917 N.am    0  UNK0       -0.3046
     20 C         143.4536  142.2079  165.9017 C.2     0  UNK0        0.2403
     21 O         143.8671  142.9416  167.1430 O.2     0  UNK0       -0.2733
     22 H         142.2070  140.5903  165.1770 H       0  UNK0        0.1494
     23 C         142.5232  138.5256  170.0538 C.3     0  UNK0        0.0001
     24 C         141.6188  139.5675  169.4650 C.3     0  UNK0        0.0016
     25 C         140.3717  140.1113  170.0967 C.3     0  UNK0        0.0001
     26 C         139.7850  141.1283  169.1632 C.3     0  UNK0        0.0016
     27 C         140.6695  141.2131  167.9547 C.3     0  UNK0        0.0180
     28 C         141.9166  140.6693  167.3230 C.3     0  UNK0        0.0715
     29 C         142.5034  139.6521  168.2565 C.3     0  UNK0        0.0196
     30 C         141.8029  140.2484  168.1412 C.3     0  UNK0        0.0016
     31 C         142.5169  140.5127  166.8488 C.3     0  UNK0        0.0001
     32 C         143.0678  139.5578  167.7252 C.3     0  UNK0        0.0001
     33 C         145.0003  141.7205  163.8719 C.3     0  UNK0        0.0290
     34 C         144.5227  140.7230  162.8586 C.3     0  UNK0        0.0021
     35 C         144.2585  139.3046  163.2691 C.3     0  UNK0        0.0001
     36 C         143.7808  138.3072  162.2557 C.3     0  UNK0        0.0000
     37 C         143.5674  138.7281  160.8319 C.3     0  UNK0        0.0000
     38 C         143.8316  140.1464  160.4214 C.3     0  UNK0        0.0000
     39 C         144.3093  141.1439  161.4347 C.3     0  UNK0        0.0001
@<TRIPOS>UNITY_ATOM_ATTR
10 1
charge -1
@<TRIPOS>BOND
     1    23    24    1
     2    24    25    1
     3    25    26    1
     4    26    27    1
     5    27    28    1
     6    28    19    1
     7    19    20   am
     8    20    21    2
     9    20     1    1
    10     1    33    1
    11    33    34    1
    12    34    35    1
    13    35    36    1
    14    36    37    1
    15    37    38    1
    16    38    39    1
    17     1     2    1
    18     2     3   am
    19     3     4    2
    20     3     5   am
    21     5     8    1
    22     8    12    1
    23    12    13    1
    24    13    14    1
    25    14    15    1
    26    15    16    1
    27     8     9    1
    28     9    10   ar
    29     9    11   ar
    30    28    29    1
    31    27    30    1
    32    30    31    1
    33    30    32    1
    34    29    24    1
    35    30    24    1
    36    39    34    1
    37    19    22    1
    38     2     6    1
    39     5     7    1
    40    16    17    1
    41    16    18    1
@<TRIPOS>MOLECULE
*****
 39 41 0 0 0
SMALL
GASTEIGER

@<TRIPOS>ATOM
      1 C         139.2544  139.6451  165.2742 C.3     0  UNK0        0.1497
      2 N         139.9941  138.5317  164.5937 N.am    0  UNK0       -0.2826
      3 C         140.8705  138.8255  163.4123 C.2     0  UNK0        0.3013
      4 O         141.0072  140.2328  162.9114 O.2     0  UNK0       -0.2528
      5 N         141.6102  137.7121  162.7318 N.am    1  LYS1       -0.2857
      6 H         139.9044  137.6081  164.9224 H       0  UNK0        0.1514
      7 H         141.5205  136.7885  163.0606 H       1  LYS1        0.1513
      8 CA        142.4866  138.0060  161.5505 C.3     1  LYS1        0.1095
      9 C         141.8909  138.0859  160.1762 C.2     1  LYS1        0.0682
     10 O         140.4269  138.3659  160.0084 O.co2   1  LYS1       -0.5475
     11 OXT       142.7594  137.8859  158.9695 O.co2   1  LYS1       -0.5475
     12 CB        143.9587  138.2199  161.7435 C.3     1  LYS1        0.0254
     13 CG        144.4692  139.5544  162.2001 C.3     1  LYS1        0.0035
     14 CD        144.7236  139.8013  163.6576 C.3     1  LYS1        0.0169
     15 CE        145.3273  141.0999  164.1041 C.3     1  LYS1        0.0651
     16 NZ        146.2412  141.8567  163.1866 N.3     1  LYS1       -0.3211
     17 HZ1       147.0926  141.3164  163.0332 H       1  LYS1        0.1189
     18 HZ2       146.4795  142.7543  163.6085 H       1  LYS1        0.1189
     19 N         140.7658  141.3644  166.5030 N.am    0  UNK0       -0.3046
     20 C         139.7861  140.2295  166.5493 C.2     0  UNK0        0.2403
     21 O         139.3380  139.6788  167.8707 O.2     0  UNK0       -0.2733
     22 H         141.0598  141.7258  165.6357 H       0  UNK0        0.1494
     23 C         140.5662  144.3666  170.2356 C.3     0  UNK0        0.0001
     24 C         141.5251  143.3090  169.7752 C.3     0  UNK0        0.0016
     25 C         142.7930  142.9064  170.4683 C.3     0  UNK0        0.0001
     26 C         143.4359  141.8169  169.6623 C.3     0  UNK0        0.0016
     27 C         142.5653  141.5461  168.4711 C.3     0  UNK0        0.0180
     28 C         141.2974  141.9487  167.7781 C.3     0  UNK0        0.0715
     29 C         140.6545  143.0383  168.5841 C.3     0  UNK0        0.0196
     30 C         141.3844  142.4683  168.5409 C.3     0  UNK0        0.0016
     31 C         140.6935  142.0180  167.2880 C.3     0  UNK0        0.0001
     32 C         140.0899  143.0410  168.0447 C.3     0  UNK0        0.0001
     33 C         137.9830  140.1743  164.6795 C.3     0  UNK0        0.0290
     34 C         137.9676  141.5209  164.0189 C.3     0  UNK0        0.0021
     35 C         137.9833  142.7665  164.8547 C.3     0  UNK0        0.0001
     36 C         137.9679  144.1131  164.1941 C.3     0  UNK0        0.0000
     37 C         137.9368  144.2142  162.6978 C.3     0  UNK0        0.0000
     38 C         137.9210  142.9686  161.8621 C.3     0  UNK0        0.0000
     39 C         137.9365  141.6220  162.5227 C.3     0  UNK0        0.0001
@<TRIPOS>UNITY_ATOM_ATTR
10 1
charge -1
@<TRIPOS>BOND
     1    23    24    1
     2    24    25    1
     3    25    26    1
     4    26    27    1
     5    27    28    1
     6    28    19    1
     7    19    20   am
     8    20    21    2
     9    20     1    1
    10     1    33    1
    11    33    34    1
    12    34    35    1
    13    35    36    1
    14    36    37    1
    15    37    38    1
    16    38    39    1
    17     1     2    1
    18     2     3   am
    19     3     4    2
    20     3     5   am
    21     5     8    1
    22     8    12    1
    23    12    13    1
    24    13    14    1
    25    14    15    1
    26    15    16    1
    27     8     9    1
    28     9    10   ar
    29     9    11   ar
    30    28    29    1
    31    27    30    1
    32    30    31    1
    33    30    32    1
    34    29    24    1
    35    30    24    1
    36    39    34    1
    37    19    22    1
    38     2     6    1
    39     5     7    1
    40    16    17    1
    41    16    18    1
@<TRIPOS>MOLECULE
*****
 39 41 0 0 0
SMALL
GASTEIGER

@<TRIPOS>ATOM
      1 C         142.8376  139.1991  164.9240 C.3     0  UNK0        0.1497
      2 N         142.0402  138.2610  164.0674 N.am    0  UNK0       -0.2826
      3 C         141.1408  138.8039  162.9967 C.2     0  UNK0        0.3013
      4 O         141.0389  140.2851  162.7827 O.2     0  UNK0       -0.2528
      5 N         140.3434  137.8657  162.1400 N.am    1  LYS1       -0.2857
      6 H         142.1071  137.2888  164.2078 H       0  UNK0        0.1514
      7 H         140.4103  136.8936  162.2805 H       1  LYS1        0.1513
      8 CA        139.4440  138.4087  161.0694 C.3     1  LYS1        0.1095
      9 C         139.9562  138.5665  159.6684 C.2     1  LYS1        0.0682
     10 O         141.4155  138.3774  159.3776 O.co2   1  LYS1       -0.5475
     11 OXT       139.0090  138.9136  158.5582 O.co2   1  LYS1       -0.5475
     12 CB        138.0324  138.7939  161.3997 C.3     1  LYS1        0.0254
     13 CG        137.6572  140.2417  161.5138 C.3     1  LYS1        0.0035
     14 CD        137.5446  140.8831  162.8651 C.3     1  LYS1        0.0169
     15 CE        137.5876  142.3771  162.9921 C.3     1  LYS1        0.0651
     16 NZ        137.6156  143.2339  161.7612 N.3     1  LYS1       -0.3211
     17 HZ1       138.4903  143.0799  161.2596 H       1  LYS1        0.1189
     18 HZ2       137.5453  144.2157  162.0286 H       1  LYS1        0.1189
     19 N         141.1096  140.5746  166.2921 N.am    0  UNK0       -0.3046
     20 C         142.2932  139.6544  166.2455 C.2     0  UNK0        0.2403
     21 O         142.9325  139.1894  167.5204 O.2     0  UNK0       -0.2733
     22 H         140.6900  140.8797  165.4554 H       0  UNK0        0.1494
     23 C         140.5469  143.7938  169.8001 C.3     0  UNK0        0.0001
     24 C         140.0677  142.3930  169.5592 C.3     0  UNK0        0.0016
     25 C         139.1969  141.5886  170.4783 C.3     0  UNK0        0.0001
     26 C         138.9662  140.2491  169.8440 C.3     0  UNK0        0.0016
     27 C         139.6944  140.2255  168.5328 C.3     0  UNK0        0.0180
     28 C         140.5651  141.0299  167.6136 C.3     0  UNK0        0.0715
     29 C         140.7959  142.3695  168.2480 C.3     0  UNK0        0.0196
     30 C         140.3751  141.5505  168.3568 C.3     0  UNK0        0.0016
     31 C         141.0090  141.2841  167.0236 C.3     0  UNK0        0.0001
     32 C         141.2256  142.5419  167.6192 C.3     0  UNK0        0.0001
     33 C         144.1796  139.6821  164.4592 C.3     0  UNK0        0.0290
     34 C         144.2991  141.0006  163.7540 C.3     0  UNK0        0.0021
     35 C         144.6880  141.0440  162.3059 C.3     0  UNK0        0.0001
     36 C         144.8076  142.3625  161.6006 C.3     0  UNK0        0.0000
     37 C         144.5382  143.6375  162.3435 C.3     0  UNK0        0.0000
     38 C         144.1493  143.5941  163.7916 C.3     0  UNK0        0.0000
     39 C         144.0298  142.2756  164.4968 C.3     0  UNK0        0.0001
@<TRIPOS>UNITY_ATOM_ATTR
10 1
charge -1
@<TRIPOS>BOND
     1    23    24    1
     2    24    25    1
     3    25    26    1
     4    26    27    1
     5    27    28    1
     6    28    19    1
     7    19    20   am
     8    20    21    2
     9    20     1    1
    10     1    33    1
    11    33    34    1
    12    34    35    1
    13    35    36    1
    14    36    37    1
    15    37    38    1
    16    38    39    1
    17     1     2    1
    18     2     3   am
    19     3     4    2
    20     3     5   am
    21     5     8    1
    22     8    12    1
    23    12    13    1
    24    13    14    1
    25    14    15    1
    26    15    16    1
    27     8     9    1
    28     9    10   ar
    29     9    11   ar
    30    28    29    1
    31    27    30    1
    32    30    31    1
    33    30    32    1
    34    29    24    1
    35    30    24    1
    36    39    34    1
    37    19    22    1
    38     2     6    1
    39     5     7    1
    40    16    17    1
    41    16    18    1
@<TRIPOS>MOLECULE
*****
 39 41 0 0 0
SMALL
GASTEIGER

@<TRIPOS>ATOM
      1 C         139.8791  139.2536  165.5035 C.3     0  UNK0        0.1497
      2 N         138.7411  139.7826  164.6820 N.am    0  UNK0       -0.2826
      3 C         138.9530  140.9603  163.7773 C.2     0  UNK0        0.3013
      4 O         140.3029  141.6088  163.6942 O.2     0  UNK0       -0.2528
      5 N         137.8149  141.4893  162.9558 N.am    1  LYS1       -0.2857
      6 H         137.8550  139.3569  164.7365 H       0  UNK0        0.1514
      7 H         136.9289  141.0636  163.0103 H       1  LYS1        0.1513
      8 CA        138.0268  142.6668  162.0512 C.3     1  LYS1        0.1095
      9 C         138.3951  142.4512  160.6131 C.2     1  LYS1        0.0682
     10 O         138.3292  141.0750  160.0203 O.co2   1  LYS1       -0.5475
     11 OXT       138.8294  143.6120  159.7680 O.co2   1  LYS1       -0.5475
     12 CB        137.8705  144.0601  162.5845 C.3     1  LYS1        0.0254
     13 CG        139.0141  144.7254  163.2913 C.3     1  LYS1        0.0035
     14 CD        140.2610  145.0764  162.5350 C.3     1  LYS1        0.0169
     15 CE        141.6029  144.6821  163.0768 C.3     1  LYS1        0.0651
     16 NZ        142.8508  145.2796  162.4974 N.3     1  LYS1       -0.3211
     17 HZ1       142.9591  144.9702  161.5315 H       1  LYS1        0.1189
     18 HZ2       143.6576  144.9778  163.0436 H       1  LYS1        0.1189
     19 N         141.1951  141.1516  166.6935 N.am    0  UNK0       -0.3046
     20 C         140.2870  139.9597  166.7625 C.2     0  UNK0        0.2403
     21 O         139.7867  139.4739  168.0906 O.2     0  UNK0       -0.2733
     22 H         141.5234  141.4704  165.8218 H       0  UNK0        0.1494
     23 C         140.5325  144.3474  170.2053 C.3     0  UNK0        0.0001
     24 C         141.6021  143.3525  169.8645 C.3     0  UNK0        0.0016
     25 C         142.8589  143.1068  170.6456 C.3     0  UNK0        0.0001
     26 C         143.6362  142.0311  169.9466 C.3     0  UNK0        0.0016
     27 C         142.8598  141.6119  168.7336 C.3     0  UNK0        0.0180
     28 C         141.6030  141.8576  167.9525 C.3     0  UNK0        0.0715
     29 C         140.8256  142.9334  168.6515 C.3     0  UNK0        0.0196
     30 C         141.6026  142.4286  168.6828 C.3     0  UNK0        0.0016
     31 C         141.0237  141.8431  167.4290 C.3     0  UNK0        0.0001
     32 C         140.2939  142.8532  168.0853 C.3     0  UNK0        0.0001
     33 C         140.6093  138.0185  165.0660 C.3     0  UNK0        0.0290
     34 C         141.6329  138.1001  163.9726 C.3     0  UNK0        0.0021
     35 C         141.3123  137.5753  162.6044 C.3     0  UNK0        0.0001
     36 C         142.3359  137.6570  161.5110 C.3     0  UNK0        0.0000
     37 C         143.6801  138.2634  161.7858 C.3     0  UNK0        0.0000
     38 C         144.0007  138.7881  163.1539 C.3     0  UNK0        0.0000
     39 C         142.9771  138.7065  164.2473 C.3     0  UNK0        0.0001
@<TRIPOS>UNITY_ATOM_ATTR
10 1
charge -1
@<TRIPOS>BOND
     1    23    24    1
     2    24    25    1
     3    25    26    1
     4    26    27    1
     5    27    28    1
     6    28    19    1
     7    19    20   am
     8    20    21    2
     9    20     1    1
    10     1    33    1
    11    33    34    1
    12    34    35    1
    13    35    36    1
    14    36    37    1
    15    37    38    1
    16    38    39    1
    17     1     2    1
    18     2     3   am
    19     3     4    2
    20     3     5   am
    21     5     8    1
    22     8    12    1
    23    12    13    1
    24    13    14    1
    25    14    15    1
    26    15    16    1
    27     8     9    1
    28     9    10   ar
    29     9    11   ar
    30    28    29    1
    31    27    30    1
    32    30    31    1
    33    30    32    1
    34    29    24    1
    35    30    24    1
    36    39    34    1
    37    19    22    1
    38     2     6    1
    39     5     7    1
    40    16    17    1
    41    16    18    1
@<TRIPOS>MOLECULE
*****
 39 41 0 0 0
SMALL
GASTEIGER

@<TRIPOS>ATOM
      1 C         144.0833  142.9243  164.7626 C.3     0  UNK0        0.1497
      2 N         143.5430  144.1741  164.1333 N.am    0  UNK0       -0.2826
      3 C         142.2443  144.1353  163.3835 C.2     0  UNK0        0.3013
      4 O         141.4861  142.8467  163.2629 O.2     0  UNK0       -0.2528
      5 N         141.7040  145.3851  162.7542 N.am    1  LYS1       -0.2857
      6 H         144.0406  145.0199  164.2125 H       0  UNK0        0.1514
      7 H         142.2017  146.2309  162.8334 H       1  LYS1        0.1513
      8 CA        140.4055  145.3463  162.0044 C.3     1  LYS1        0.1095
      9 C         140.4055  145.2018  160.5114 C.2     1  LYS1        0.0682
     10 O         141.1782  144.0902  159.8655 O.co2   1  LYS1       -0.5475
     11 OXT       139.6329  146.1690  159.6643 O.co2   1  LYS1       -0.5475
     12 CB        139.1068  145.4519  162.7477 C.3     1  LYS1        0.0254
     13 CG        138.1467  144.2995  162.7476 C.3     1  LYS1        0.0035
     14 CD        137.9154  143.5159  164.0057 C.3     1  LYS1        0.0169
     15 CE        137.8342  142.0191  163.9528 C.3     1  LYS1        0.0651
     16 NZ        136.7611  141.3545  163.1425 N.3     1  LYS1       -0.3211
     17 HZ1       135.8496  141.5605  163.5513 H       1  LYS1        0.1189
     18 HZ2       136.9124  140.3458  163.1400 H       1  LYS1        0.1189
     19 N         142.4874  141.4609  166.1984 N.am    0  UNK0       -0.3046
     20 C         143.5811  142.4831  166.1054 C.2     0  UNK0        0.2403
     21 O         144.1728  143.0643  167.3554 O.2     0  UNK0       -0.2733
     22 H         142.0991  141.0794  165.3780 H       0  UNK0        0.1494
     23 C         139.5678  141.7912  169.9868 C.3     0  UNK0        0.0001
     24 C         140.6993  140.8876  169.5953 C.3     0  UNK0        0.0016
     25 C         141.2346  139.7437  170.4046 C.3     0  UNK0        0.0001
     26 C         142.3602  139.1184  169.6352 C.3     0  UNK0        0.0016
     27 C         142.5206  139.8758  168.3505 C.3     0  UNK0        0.0180
     28 C         141.9853  141.0197  167.5412 C.3     0  UNK0        0.0715
     29 C         140.8596  141.6451  168.3106 C.3     0  UNK0        0.0196
     30 C         141.4940  140.9693  168.3258 C.3     0  UNK0        0.0016
     31 C         141.8484  141.5583  166.9926 C.3     0  UNK0        0.0001
     32 C         140.7915  142.1455  167.7150 C.3     0  UNK0        0.0001
     33 C         145.1258  142.1156  164.0490 C.3     0  UNK0        0.0290
     34 C         144.7132  141.0503  163.0769 C.3     0  UNK0        0.0021
     35 C         144.5069  139.6420  163.5505 C.3     0  UNK0        0.0001
     36 C         144.0943  138.5767  162.5784 C.3     0  UNK0        0.0000
     37 C         143.8879  138.9197  161.1328 C.3     0  UNK0        0.0000
     38 C         144.0942  140.3279  160.6593 C.3     0  UNK0        0.0000
     39 C         144.5068  141.3932  161.6313 C.3     0  UNK0        0.0001
@<TRIPOS>UNITY_ATOM_ATTR
10 1
charge -1
@<TRIPOS>BOND
     1    23    24    1
     2    24    25    1
     3    25    26    1
     4    26    27    1
     5    27    28    1
     6    28    19    1
     7    19    20   am
     8    20    21    2
     9    20     1    1
    10     1    33    1
    11    33    34    1
    12    34    35    1
    13    35    36    1
    14    36    37    1
    15    37    38    1
    16    38    39    1
    17     1     2    1
    18     2     3   am
    19     3     4    2
    20     3     5   am
    21     5     8    1
    22     8    12    1
    23    12    13    1
    24    13    14    1
    25    14    15    1
    26    15    16    1
    27     8     9    1
    28     9    10   ar
    29     9    11   ar
    30    28    29    1
    31    27    30    1
    32    30    31    1
    33    30    32    1
    34    29    24    1
    35    30    24    1
    36    39    34    1
    37    19    22    1
    38     2     6    1
    39     5     7    1
    40    16    17    1
    41    16    18    1
@<TRIPOS>MOLECULE
*****
 39 41 0 0 0
SMALL
GASTEIGER

@<TRIPOS>ATOM
      1 C         139.3556  139.0756  165.2581 C.3     0  UNK0        0.1497
      2 N         138.3585  139.7137  164.3371 N.am    0  UNK0       -0.2826
      3 C         138.7175  140.9670  163.5952 C.2     0  UNK0        0.3013
      4 O         140.0738  141.5822  163.7745 O.2     0  UNK0       -0.2528
      5 N         137.7203  141.6051  162.6741 N.am    1  LYS1       -0.2857
      6 H         137.4683  139.3099  164.2194 H       0  UNK0        0.1514
      7 H         136.8302  141.2013  162.5565 H       1  LYS1        0.1513
      8 CA        138.0794  142.8584  161.9323 C.3     1  LYS1        0.1095
      9 C         138.1030  144.1747  162.6511 C.2     1  LYS1        0.0682
     10 O         137.6031  144.2677  164.0623 O.co2   1  LYS1       -0.5475
     11 OXT       138.6265  145.3981  161.9587 O.co2   1  LYS1       -0.5475
     12 CB        138.4149  142.7953  160.4716 C.3     1  LYS1        0.0254
     13 CG        139.7480  142.2679  160.0304 C.3     1  LYS1        0.0035
     14 CD        141.0100  142.9013  160.5366 C.3     1  LYS1        0.0169
     15 CE        141.4298  144.2482  160.0272 C.3     1  LYS1        0.0651
     16 NZ        141.5804  145.3968  160.9801 N.3     1  LYS1       -0.3211
     17 HZ1       140.6687  145.6378  161.3689 H       1  LYS1        0.1189
     18 HZ2       141.9623  146.2021  160.4842 H       1  LYS1        0.1189
     19 N         140.6997  140.6373  166.8407 N.am    0  UNK0       -0.3046
     20 C         139.5909  139.6508  166.6234 C.2     0  UNK0        0.2403
     21 O         138.7173  139.2394  167.7713 O.2     0  UNK0       -0.2733
     22 H         141.2730  140.9073  166.0873 H       0  UNK0        0.1494
     23 C         140.5328  144.1747  170.0726 C.3     0  UNK0        0.0001
     24 C         141.0086  142.7521  170.0807 C.3     0  UNK0        0.0016
     25 C         141.6134  142.0314  171.2489 C.3     0  UNK0        0.0001
     26 C         141.9417  140.6344  170.8122 C.3     0  UNK0        0.0016
     27 C         141.5397  140.4918  169.3741 C.3     0  UNK0        0.0180
     28 C         140.9349  141.2125  168.2059 C.3     0  UNK0        0.0715
     29 C         140.6066  142.6096  168.6426 C.3     0  UNK0        0.0196
     30 C         140.9630  141.8006  168.9220 C.3     0  UNK0        0.0016
     31 C         140.6498  141.4132  167.5071 C.3     0  UNK0        0.0001
     32 C         140.3416  142.7249  167.9172 C.3     0  UNK0        0.0001
     33 C         140.1176  137.8622  164.8140 C.3     0  UNK0        0.0290
     34 C         141.2944  138.0101  163.8957 C.3     0  UNK0        0.0021
     35 C         142.5747  138.6017  164.4065 C.3     0  UNK0        0.0001
     36 C         143.7514  138.7497  163.4881 C.3     0  UNK0        0.0000
     37 C         143.6479  138.3061  162.0589 C.3     0  UNK0        0.0000
     38 C         142.3676  137.7145  161.5482 C.3     0  UNK0        0.0000
     39 C         141.1908  137.5666  162.4665 C.3     0  UNK0        0.0001
@<TRIPOS>UNITY_ATOM_ATTR
10 1
charge -1
@<TRIPOS>BOND
     1    23    24    1
     2    24    25    1
     3    25    26    1
     4    26    27    1
     5    27    28    1
     6    28    19    1
     7    19    20   am
     8    20    21    2
     9    20     1    1
    10     1    33    1
    11    33    34    1
    12    34    35    1
    13    35    36    1
    14    36    37    1
    15    37    38    1
    16    38    39    1
    17     1     2    1
    18     2     3   am
    19     3     4    2
    20     3     5   am
    21     5     8    1
    22     8    12    1
    23    12    13    1
    24    13    14    1
    25    14    15    1
    26    15    16    1
    27     8     9    1
    28     9    10   ar
    29     9    11   ar
    30    28    29    1
    31    27    30    1
    32    30    31    1
    33    30    32    1
    34    29    24    1
    35    30    24    1
    36    39    34    1
    37    19    22    1
    38     2     6    1
    39     5     7    1
    40    16    17    1
    41    16    18    1
@<TRIPOS>MOLECULE
*****
 39 41 0 0 0
SMALL
GASTEIGER

@<TRIPOS>ATOM
      1 C         138.2986  139.9192  164.0028 C.3     0  UNK0        0.1497
      2 N         138.8581  138.9603  162.9942 N.am    0  UNK0       -0.2826
      3 C         140.2478  139.1553  162.4643 C.2     0  UNK0        0.3013
      4 O         141.0779  140.3093  162.9430 O.2     0  UNK0       -0.2528
      5 N         140.8073  138.1963  161.4557 N.am    1  LYS1       -0.2857
      6 H         138.3132  138.2029  162.6800 H       0  UNK0        0.1514
      7 H         140.2625  137.4389  161.1415 H       1  LYS1        0.1513
      8 CA        142.1969  138.3913  160.9258 C.3     1  LYS1        0.1095
      9 C         142.4073  139.0658  159.6026 C.2     1  LYS1        0.0682
     10 O         141.2279  139.5432  158.8083 O.co2   1  LYS1       -0.5475
     11 OXT       143.7972  139.2627  159.0738 O.co2   1  LYS1       -0.5475
     12 CB        143.3763  137.9119  161.7192 C.3     1  LYS1        0.0254
     13 CG        143.8957  138.7336  162.8616 C.3     1  LYS1        0.0035
     14 CD        144.4967  140.0833  162.6024 C.3     1  LYS1        0.0169
     15 CE        145.3439  140.7410  163.6510 C.3     1  LYS1        0.0651
     16 NZ        146.2911  141.8397  163.2694 N.3     1  LYS1       -0.3211
     17 HZ1       147.0245  141.4631  162.6688 H       1  LYS1        0.1189
     18 HZ2       146.7103  142.2348  164.1111 H       1  LYS1        0.1189
     19 N         139.7877  140.4081  166.0749 N.am    0  UNK0       -0.3046
     20 C         138.5972  139.7330  165.4609 C.2     0  UNK0        0.2403
     21 O         137.7053  138.8716  166.3051 O.2     0  UNK0       -0.2733
     22 H         140.3730  140.9734  165.5208 H       0  UNK0        0.1494
     23 C         142.6268  139.1481  169.7270 C.3     0  UNK0        0.0001
     24 C         141.2311  139.6839  169.6044 C.3     0  UNK0        0.0016
     25 C         140.2979  139.9812  170.7405 C.3     0  UNK0        0.0001
     26 C         139.0136  140.4975  170.1624 C.3     0  UNK0        0.0016
     27 C         139.1531  140.5192  168.6691 C.3     0  UNK0        0.0180
     28 C         140.0863  140.2219  167.5330 C.3     0  UNK0        0.0715
     29 C         141.3706  139.7056  168.1110 C.3     0  UNK0        0.0196
     30 C         140.5236  140.0164  168.3242 C.3     0  UNK0        0.0016
     31 C         140.4186  140.1308  166.8323 C.3     0  UNK0        0.0001
     32 C         141.6244  139.6461  167.3750 C.3     0  UNK0        0.0001
     33 C         137.4404  141.0645  163.5533 C.3     0  UNK0        0.0290
     34 C         138.0326  142.4354  163.4126 C.3     0  UNK0        0.0021
     35 C         138.0508  143.3686  164.5869 C.3     0  UNK0        0.0001
     36 C         138.6430  144.7396  164.4463 C.3     0  UNK0        0.0000
     37 C         139.2172  145.1773  163.1314 C.3     0  UNK0        0.0000
     38 C         139.1990  144.2440  161.9572 C.3     0  UNK0        0.0000
     39 C         138.6067  142.8731  162.0978 C.3     0  UNK0        0.0001
@<TRIPOS>UNITY_ATOM_ATTR
10 1
charge -1
@<TRIPOS>BOND
     1    23    24    1
     2    24    25    1
     3    25    26    1
     4    26    27    1
     5    27    28    1
     6    28    19    1
     7    19    20   am
     8    20    21    2
     9    20     1    1
    10     1    33    1
    11    33    34    1
    12    34    35    1
    13    35    36    1
    14    36    37    1
    15    37    38    1
    16    38    39    1
    17     1     2    1
    18     2     3   am
    19     3     4    2
    20     3     5   am
    21     5     8    1
    22     8    12    1
    23    12    13    1
    24    13    14    1
    25    14    15    1
    26    15    16    1
    27     8     9    1
    28     9    10   ar
    29     9    11   ar
    30    28    29    1
    31    27    30    1
    32    30    31    1
    33    30    32    1
    34    29    24    1
    35    30    24    1
    36    39    34    1
    37    19    22    1
    38     2     6    1
    39     5     7    1
    40    16    17    1
    41    16    18    1
@<TRIPOS>MOLECULE
*****
 39 41 0 0 0
SMALL
GASTEIGER

@<TRIPOS>ATOM
      1 C         142.8222  138.8982  165.3508 C.3     0  UNK0        0.1497
      2 N         143.9621  139.5641  164.6387 N.am    0  UNK0       -0.2826
      3 C         143.7234  140.8156  163.8470 C.2     0  UNK0        0.3013
      4 O         142.3448  141.4013  163.7674 O.2     0  UNK0       -0.2528
      5 N         144.8634  141.4815  163.1349 N.am    1  LYS1       -0.2857
      6 H         144.8670  139.1797  164.6909 H       0  UNK0        0.1514
      7 H         145.7682  141.0971  163.1871 H       1  LYS1        0.1513
      8 CA        144.6247  142.7330  162.3433 C.3     1  LYS1        0.1095
      9 C         144.2030  143.9925  163.0404 C.2     1  LYS1        0.0682
     10 O         143.5112  145.0793  162.2722 O.co2   1  LYS1       -0.5475
     11 OXT       144.4731  144.1650  164.5058 O.co2   1  LYS1       -0.5475
     12 CB        144.8076  142.7251  160.8544 C.3     1  LYS1        0.0254
     13 CG        143.6650  142.3444  159.9604 C.3     1  LYS1        0.0035
     14 CD        143.2148  143.2809  158.8785 C.3     1  LYS1        0.0169
     15 CE        141.9363  144.0494  159.0359 C.3     1  LYS1        0.0651
     16 NZ        141.9158  145.3141  159.8421 N.3     1  LYS1       -0.3211
     17 HZ1       142.1058  145.0968  160.8204 H       1  LYS1        0.1189
     18 HZ2       140.9984  145.7528  159.7633 H       1  LYS1        0.1189
     19 N         141.1273  140.4059  166.6173 N.am    0  UNK0       -0.3046
     20 C         142.3017  139.4729  166.6348 C.2     0  UNK0        0.2403
     21 O         142.9557  139.1146  167.9364 O.2     0  UNK0       -0.2733
     22 H         140.6981  140.6411  165.7631 H       0  UNK0        0.1494
     23 C         138.2704  140.3662  170.4673 C.3     0  UNK0        0.0001
     24 C         139.3322  141.2874  169.9439 C.3     0  UNK0        0.0016
     25 C         139.7927  142.5598  170.5911 C.3     0  UNK0        0.0001
     26 C         140.8651  143.1567  169.7286 C.3     0  UNK0        0.0016
     27 C         141.0673  142.2531  168.5485 C.3     0  UNK0        0.0180
     28 C         140.6068  140.9806  167.9014 C.3     0  UNK0        0.0715
     29 C         139.5344  140.3837  168.7639 C.3     0  UNK0        0.0196
     30 C         140.1200  141.0978  168.6816 C.3     0  UNK0        0.0016
     31 C         140.5035  140.3678  167.4286 C.3     0  UNK0        0.0001
     32 C         139.4966  139.8074  168.2383 C.3     0  UNK0        0.0001
     33 C         142.2026  137.6576  164.7788 C.3     0  UNK0        0.0290
     34 C         141.1131  137.7675  163.7537 C.3     0  UNK0        0.0021
     35 C         139.6758  137.6841  164.1750 C.3     0  UNK0        0.0001
     36 C         138.5862  137.7940  163.1499 C.3     0  UNK0        0.0000
     37 C         138.9340  137.9872  161.7036 C.3     0  UNK0        0.0000
     38 C         140.3712  138.0706  161.2824 C.3     0  UNK0        0.0000
     39 C         141.4607  137.9607  162.3074 C.3     0  UNK0        0.0001
@<TRIPOS>UNITY_ATOM_ATTR
10 1
charge -1
@<TRIPOS>BOND
     1    23    24    1
     2    24    25    1
     3    25    26    1
     4    26    27    1
     5    27    28    1
     6    28    19    1
     7    19    20   am
     8    20    21    2
     9    20     1    1
    10     1    33    1
    11    33    34    1
    12    34    35    1
    13    35    36    1
    14    36    37    1
    15    37    38    1
    16    38    39    1
    17     1     2    1
    18     2     3   am
    19     3     4    2
    20     3     5   am
    21     5     8    1
    22     8    12    1
    23    12    13    1
    24    13    14    1
    25    14    15    1
    26    15    16    1
    27     8     9    1
    28     9    10   ar
    29     9    11   ar
    30    28    29    1
    31    27    30    1
    32    30    31    1
    33    30    32    1
    34    29    24    1
    35    30    24    1
    36    39    34    1
    37    19    22    1
    38     2     6    1
    39     5     7    1
    40    16    17    1
    41    16    18    1
