@<TRIPOS>MOLECULE
*****
 26 30 0 0 0
SMALL
GASTEIGER

@<TRIPOS>ATOM
      1 C         141.5684  138.0039  158.6659 C.3     1  UNL1        0.1366
      2 N         140.8221  138.6789  159.7783 N.ar    1  UNL1       -0.2630
      3 C         139.5365  139.4398  159.6430 C.ar    1  UNL1        0.3331
      4 O         138.7716  139.6594  158.3715 O.2     1  UNL1       -0.2462
      5 N         139.1502  139.9425  161.0024 N.ar    1  UNL1       -0.2694
      6 C         140.1970  139.4923  161.9779 C.ar    1  UNL1        0.0986
      7 C         140.3429  139.6926  163.4572 C.ar    1  UNL1        0.0224
      8 C         141.5219  139.1119  164.1800 C.ar    1  UNL1        0.0267
      9 C         142.5552  138.3309  163.4235 C.ar    1  UNL1        0.1011
     10 N         142.4094  138.1306  161.9441 N.ar    1  UNL1       -0.2251
     11 C         141.2303  138.7113  161.2213 C.ar    1  UNL1        0.1633
     12 C         141.6678  139.3122  165.6595 C.ar    1  UNL1        0.0307
     13 C         142.9184  139.0971  166.4593 C.ar    1  UNL1        0.0067
     14 C         142.6122  139.4147  167.8929 C.ar    1  UNL1        0.0027
     15 C         141.1722  139.8262  167.9792 C.ar    1  UNL1        0.0069
     16 S         140.5886  139.7628  166.5988 S.2     1  UNL1       -0.0912
     17 C         140.4439  140.2301  169.2267 C.3     1  UNL1        0.0285
     18 C         139.1649  140.5762  169.9297 C.3     1  UNL1        0.0052
     19 C         140.4613  140.5835  170.6844 C.3     1  UNL1        0.0052
     20 C         137.9312  140.7532  161.3290 C.3     1  UNL1        0.1956
     21 C         138.0176  142.2499  161.3812 C.2     1  UNL1        0.2489
     22 O         138.1802  143.0364  160.1144 O.2     1  UNL1       -0.2728
     23 N         137.9413  142.9600  162.7003 N.am    1  UNL1       -0.2778
     24 C         137.9890  144.3942  163.1370 C.3     1  UNL1        0.0952
     25 C         137.8334  143.9642  164.5657 C.3     1  UNL1        0.0430
     26 C         137.7856  142.5301  164.1289 C.3     1  UNL1        0.0952
@<TRIPOS>BOND
     1     1     2    1
     2     2     3   ar
     3     3     4    2
     4     3     5   ar
     5     5    20    1
     6    20    21    1
     7    21    22    2
     8    21    23   am
     9    23    24    1
    10    24    25    1
    11    25    26    1
    12     5     6   ar
    13     6     7   ar
    14     7     8   ar
    15     8    12    1
    16    12    13   ar
    17    13    14   ar
    18    14    15   ar
    19    15    17    1
    20    17    18    1
    21    18    19    1
    22    15    16   ar
    23     8     9   ar
    24     9    10   ar
    25    10    11   ar
    26    11     2   ar
    27    26    23    1
    28    11     6   ar
    29    16    12   ar
    30    19    17    1
@<TRIPOS>MOLECULE
*****
 26 30 0 0 0
SMALL
GASTEIGER

@<TRIPOS>ATOM
      1 C         137.4231  140.1526  159.9979 C.3     1  UNL1        0.1366
      2 N         138.1912  141.0888  160.8831 N.ar    1  UNL1       -0.2630
      3 C         138.7034  142.4451  160.4983 C.ar    1  UNL1        0.3331
      4 O         138.5376  143.1033  159.1607 O.2     1  UNL1       -0.2462
      5 N         139.4107  143.0275  161.6859 N.ar    1  UNL1       -0.2694
      6 C         139.3356  142.0312  162.8048 C.ar    1  UNL1        0.0986
      7 C         139.8561  142.0602  164.2112 C.ar    1  UNL1        0.0224
      8 C         139.6229  140.8911  165.1215 C.ar    1  UNL1        0.0267
      9 C         138.8691  139.6929  164.6253 C.ar    1  UNL1        0.1011
     10 N         138.3486  139.6638  163.2188 N.ar    1  UNL1       -0.2251
     11 C         138.5818  140.8330  162.3086 C.ar    1  UNL1        0.1633
     12 C         140.1434  140.9201  166.5280 C.ar    1  UNL1        0.0307
     13 C         139.6516  140.0778  167.6677 C.ar    1  UNL1        0.0067
     14 C         140.4514  140.4336  168.8858 C.ar    1  UNL1        0.0027
     15 C         141.4374  141.4958  168.4990 C.ar    1  UNL1        0.0069
     16 S         141.2471  141.7964  167.0418 S.2     1  UNL1       -0.0912
     17 C         142.4381  142.1436  169.4095 C.3     1  UNL1        0.0285
     18 C         143.8494  142.2857  169.8973 C.3     1  UNL1        0.0052
     19 C         142.7600  143.1234  170.4987 C.3     1  UNL1        0.0052
     20 C         140.0763  144.3704  161.7445 C.3     1  UNL1        0.1956
     21 C         141.5498  144.4890  161.4893 C.2     1  UNL1        0.2489
     22 O         142.0615  144.5910  160.0830 O.2     1  UNL1       -0.2728
     23 N         142.5114  144.5057  162.6404 N.am    1  UNL1       -0.2778
     24 C         144.0017  144.6075  162.7759 C.3     1  UNL1        0.0952
     25 C         143.8713  144.5293  164.2683 C.3     1  UNL1        0.0430
     26 C         142.3809  144.4275  164.1327 C.3     1  UNL1        0.0952
@<TRIPOS>BOND
     1     1     2    1
     2     2     3   ar
     3     3     4    2
     4     3     5   ar
     5     5    20    1
     6    20    21    1
     7    21    22    2
     8    21    23   am
     9    23    24    1
    10    24    25    1
    11    25    26    1
    12     5     6   ar
    13     6     7   ar
    14     7     8   ar
    15     8    12    1
    16    12    13   ar
    17    13    14   ar
    18    14    15   ar
    19    15    17    1
    20    17    18    1
    21    18    19    1
    22    15    16   ar
    23     8     9   ar
    24     9    10   ar
    25    10    11   ar
    26    11     2   ar
    27    26    23    1
    28    11     6   ar
    29    16    12   ar
    30    19    17    1
@<TRIPOS>MOLECULE
*****
 26 30 0 0 0
SMALL
GASTEIGER

@<TRIPOS>ATOM
      1 C         141.0523  138.2983  158.3327 C.3     1  UNL1        0.1366
      2 N         141.6014  138.7401  159.6568 N.ar    1  UNL1       -0.2630
      3 C         142.9901  139.2472  159.9105 C.ar    1  UNL1        0.3331
      4 O         144.0735  139.4016  158.8846 O.2     1  UNL1       -0.2462
      5 N         143.1051  139.5728  161.3702 N.ar    1  UNL1       -0.2694
      6 C         141.7875  139.2669  162.0187 C.ar    1  UNL1        0.0986
      7 C         141.3140  139.3906  163.4366 C.ar    1  UNL1        0.0224
      8 C         139.9111  138.9995  163.7955 C.ar    1  UNL1        0.0267
      9 C         138.9817  138.4848  162.7365 C.ar    1  UNL1        0.1011
     10 N         139.4553  138.3612  161.3187 N.ar    1  UNL1       -0.2251
     11 C         140.8582  138.7522  160.9597 C.ar    1  UNL1        0.1633
     12 C         139.4375  139.1231  165.2134 C.ar    1  UNL1        0.0307
     13 C         138.1566  138.5722  165.7664 C.ar    1  UNL1        0.0067
     14 C         138.0892  138.9279  167.2220 C.ar    1  UNL1        0.0027
     15 C         139.3284  139.6988  167.5687 C.ar    1  UNL1        0.0069
     16 S         140.1617  139.8194  166.3273 S.2     1  UNL1       -0.0912
     17 C         139.6737  140.2519  168.9196 C.3     1  UNL1        0.0285
     18 C         139.4964  141.2995  169.9783 C.3     1  UNL1        0.0052
     19 C         140.4489  140.1622  170.2006 C.3     1  UNL1        0.0052
     20 C         144.3238  140.1101  162.0604 C.3     1  UNL1        0.1956
     21 C         144.4631  141.5849  162.2965 C.2     1  UNL1        0.2489
     22 O         144.8255  142.4953  161.1609 O.2     1  UNL1       -0.2728
     23 N         144.2399  142.1491  163.6683 N.am    1  UNL1       -0.2778
     24 C         144.2869  143.5218  164.2711 C.3     1  UNL1        0.0952
     25 C         143.9242  142.9470  165.6084 C.3     1  UNL1        0.0430
     26 C         143.8772  141.5743  165.0055 C.3     1  UNL1        0.0952
@<TRIPOS>BOND
     1     1     2    1
     2     2     3   ar
     3     3     4    2
     4     3     5   ar
     5     5    20    1
     6    20    21    1
     7    21    22    2
     8    21    23   am
     9    23    24    1
    10    24    25    1
    11    25    26    1
    12     5     6   ar
    13     6     7   ar
    14     7     8   ar
    15     8    12    1
    16    12    13   ar
    17    13    14   ar
    18    14    15   ar
    19    15    17    1
    20    17    18    1
    21    18    19    1
    22    15    16   ar
    23     8     9   ar
    24     9    10   ar
    25    10    11   ar
    26    11     2   ar
    27    26    23    1
    28    11     6   ar
    29    16    12   ar
    30    19    17    1
@<TRIPOS>MOLECULE
*****
 26 30 0 0 0
SMALL
GASTEIGER

@<TRIPOS>ATOM
      1 C         142.5441  137.4031  159.1530 C.3     1  UNL1        0.1366
      2 N         142.9678  138.4384  160.1523 N.ar    1  UNL1       -0.2630
      3 C         143.8281  139.6347  159.8716 C.ar    1  UNL1        0.3331
      4 O         144.4157  140.0058  158.5423 O.2     1  UNL1       -0.2462
      5 N         143.9976  140.3948  161.1536 N.ar    1  UNL1       -0.2694
      6 C         143.2421  139.6683  162.2266 C.ar    1  UNL1        0.0986
      7 C         143.0515  139.9516  163.6872 C.ar    1  UNL1        0.0224
      8 C         142.2244  139.0257  164.5290 C.ar    1  UNL1        0.0267
      9 C         141.5879  137.8165  163.9102 C.ar    1  UNL1        0.1011
     10 N         141.7786  137.5333  162.4496 N.ar    1  UNL1       -0.2251
     11 C         142.6057  138.4592  161.6078 C.ar    1  UNL1        0.1633
     12 C         142.0337  139.3089  165.9897 C.ar    1  UNL1        0.0307
     13 C         143.0510  139.0908  167.0702 C.ar    1  UNL1        0.0067
     14 C         142.4382  139.5071  168.3745 C.ar    1  UNL1        0.0027
     15 C         141.0422  139.9824  168.1001 C.ar    1  UNL1        0.0069
     16 S         140.7922  139.8599  166.6262 S.2     1  UNL1       -0.0912
     17 C         140.0674  140.4909  169.1205 C.3     1  UNL1        0.0285
     18 C         138.8463  140.2839  169.9667 C.3     1  UNL1        0.0052
     19 C         139.6000  141.5786  170.0416 C.3     1  UNL1        0.0052
     20 C         144.7845  141.6594  161.3314 C.3     1  UNL1        0.1956
     21 C         144.0728  142.9588  161.5665 C.2     1  UNL1        0.2489
     22 O         143.3499  143.6329  160.4382 O.2     1  UNL1       -0.2728
     23 N         144.0840  143.5841  162.9300 N.am    1  UNL1       -0.2778
     24 C         143.5063  144.8318  163.5293 C.3     1  UNL1        0.0952
     25 C         144.0998  144.4683  164.8582 C.3     1  UNL1        0.0430
     26 C         144.6776  143.2205  164.2587 C.3     1  UNL1        0.0952
@<TRIPOS>BOND
     1     1     2    1
     2     2     3   ar
     3     3     4    2
     4     3     5   ar
     5     5    20    1
     6    20    21    1
     7    21    22    2
     8    21    23   am
     9    23    24    1
    10    24    25    1
    11    25    26    1
    12     5     6   ar
    13     6     7   ar
    14     7     8   ar
    15     8    12    1
    16    12    13   ar
    17    13    14   ar
    18    14    15   ar
    19    15    17    1
    20    17    18    1
    21    18    19    1
    22    15    16   ar
    23     8     9   ar
    24     9    10   ar
    25    10    11   ar
    26    11     2   ar
    27    26    23    1
    28    11     6   ar
    29    16    12   ar
    30    19    17    1
@<TRIPOS>MOLECULE
*****
 26 30 0 0 0
SMALL
GASTEIGER

@<TRIPOS>ATOM
      1 C         142.5015  138.0112  158.6786 C.3     1  UNL1        0.1366
      2 N         141.9211  139.0569  159.5839 N.ar    1  UNL1       -0.2630
      3 C         141.7847  140.5174  159.2703 C.ar    1  UNL1        0.3331
      4 O         142.2046  141.1886  157.9962 O.2     1  UNL1       -0.2462
      5 N         141.1546  141.1888  160.4544 N.ar    1  UNL1       -0.2694
      6 C         140.9016  140.1433  161.4998 C.ar    1  UNL1        0.0986
      7 C         140.3011  140.2209  162.8722 C.ar    1  UNL1        0.0224
      8 C         140.1743  138.9808  163.7065 C.ar    1  UNL1        0.0267
      9 C         140.6481  137.6632  163.1685 C.ar    1  UNL1        0.1011
     10 N         141.2486  137.5856  161.7962 N.ar    1  UNL1       -0.2251
     11 C         141.3754  138.8257  160.9618 C.ar    1  UNL1        0.1633
     12 C         139.5738  139.0583  165.0789 C.ar    1  UNL1        0.0307
     13 C         138.3154  138.3782  165.5303 C.ar    1  UNL1        0.0067
     14 C         138.0901  138.7291  166.9712 C.ar    1  UNL1        0.0027
     15 C         139.2093  139.6262  167.4103 C.ar    1  UNL1        0.0069
     16 S         140.1262  139.8296  166.2407 S.2     1  UNL1       -0.0912
     17 C         139.3813  140.2162  168.7786 C.3     1  UNL1        0.0285
     18 C         140.2355  140.9169  169.7930 C.3     1  UNL1        0.0052
     19 C         138.8250  140.5373  170.1341 C.3     1  UNL1        0.0052
     20 C         140.8338  142.6494  160.5724 C.3     1  UNL1        0.1956
     21 C         139.4530  143.0846  160.9649 C.2     1  UNL1        0.2489
     22 O         138.3058  142.8825  160.0198 O.2     1  UNL1       -0.2728
     23 N         139.2193  143.7220  162.3025 N.am    1  UNL1       -0.2778
     24 C         138.0221  144.2678  163.0226 C.3     1  UNL1        0.0952
     25 C         138.8889  144.6233  164.1942 C.3     1  UNL1        0.0430
     26 C         140.0861  144.0775  163.4739 C.3     1  UNL1        0.0952
@<TRIPOS>BOND
     1     1     2    1
     2     2     3   ar
     3     3     4    2
     4     3     5   ar
     5     5    20    1
     6    20    21    1
     7    21    22    2
     8    21    23   am
     9    23    24    1
    10    24    25    1
    11    25    26    1
    12     5     6   ar
    13     6     7   ar
    14     7     8   ar
    15     8    12    1
    16    12    13   ar
    17    13    14   ar
    18    14    15   ar
    19    15    17    1
    20    17    18    1
    21    18    19    1
    22    15    16   ar
    23     8     9   ar
    24     9    10   ar
    25    10    11   ar
    26    11     2   ar
    27    26    23    1
    28    11     6   ar
    29    16    12   ar
    30    19    17    1
@<TRIPOS>MOLECULE
*****
 26 30 0 0 0
SMALL
GASTEIGER

@<TRIPOS>ATOM
      1 C         144.7445  142.1374  158.7037 C.3     1  UNL1        0.1366
      2 N         143.8552  142.6151  159.8132 N.ar    1  UNL1       -0.2630
      3 C         142.8345  143.7099  159.7157 C.ar    1  UNL1        0.3331
      4 O         142.5238  144.5193  158.4916 O.2     1  UNL1       -0.2462
      5 N         142.1790  143.8533  161.0573 N.ar    1  UNL1       -0.2694
      6 C         142.7945  142.8470  161.9839 C.ar    1  UNL1        0.0986
      7 C         142.5456  142.5287  163.4284 C.ar    1  UNL1        0.0224
      8 C         143.3326  141.4452  164.1040 C.ar    1  UNL1        0.0267
      9 C         144.3686  140.6800  163.3351 C.ar    1  UNL1        0.1011
     10 N         144.6175  140.9983  161.8906 N.ar    1  UNL1       -0.2251
     11 C         143.8305  142.0818  161.2150 C.ar    1  UNL1        0.1633
     12 C         143.0836  141.1268  165.5486 C.ar    1  UNL1        0.0307
     13 C         142.9261  139.7551  166.1347 C.ar    1  UNL1        0.0067
     14 C         142.6937  139.9049  167.6090 C.ar    1  UNL1        0.0027
     15 C         142.7075  141.3692  167.9341 C.ar    1  UNL1        0.0069
     16 S         142.9485  142.1244  166.6607 S.2     1  UNL1       -0.0912
     17 C         142.5143  141.9724  169.2938 C.3     1  UNL1        0.0285
     18 C         142.9594  142.9159  170.3715 C.3     1  UNL1        0.0052
     19 C         141.7344  142.0735  170.5711 C.3     1  UNL1        0.0052
     20 C         141.0977  144.8311  161.4103 C.3     1  UNL1        0.1956
     21 C         139.6960  144.3488  161.6401 C.2     1  UNL1        0.2489
     22 O         138.8962  143.7963  160.4977 O.2     1  UNL1       -0.2728
     23 N         139.0942  144.4189  163.0123 N.am    1  UNL1       -0.2778
     24 C         137.7699  144.0460  163.6099 C.3     1  UNL1        0.0952
     25 C         138.2431  144.5181  164.9528 C.3     1  UNL1        0.0430
     26 C         139.5674  144.8909  164.3551 C.3     1  UNL1        0.0952
@<TRIPOS>BOND
     1     1     2    1
     2     2     3   ar
     3     3     4    2
     4     3     5   ar
     5     5    20    1
     6    20    21    1
     7    21    22    2
     8    21    23   am
     9    23    24    1
    10    24    25    1
    11    25    26    1
    12     5     6   ar
    13     6     7   ar
    14     7     8   ar
    15     8    12    1
    16    12    13   ar
    17    13    14   ar
    18    14    15   ar
    19    15    17    1
    20    17    18    1
    21    18    19    1
    22    15    16   ar
    23     8     9   ar
    24     9    10   ar
    25    10    11   ar
    26    11     2   ar
    27    26    23    1
    28    11     6   ar
    29    16    12   ar
    30    19    17    1
@<TRIPOS>MOLECULE
*****
 26 30 0 0 0
SMALL
GASTEIGER

@<TRIPOS>ATOM
      1 C         144.8762  142.4318  159.6907 C.3     1  UNL1        0.1366
      2 N         144.1980  141.4985  160.6495 N.ar    1  UNL1       -0.2630
      3 C         143.6883  140.1243  160.3307 C.ar    1  UNL1        0.3331
      4 O         143.7673  139.4419  158.9972 O.2     1  UNL1       -0.2462
      5 N         143.0858  139.5522  161.5795 N.ar    1  UNL1       -0.2694
      6 C         143.2231  140.5729  162.6701 C.ar    1  UNL1        0.0986
      7 C         142.8109  140.5623  164.1123 C.ar    1  UNL1        0.0224
      8 C         143.0862  141.7547  164.9797 C.ar    1  UNL1        0.0267
      9 C         143.7737  142.9576  164.4049 C.ar    1  UNL1        0.1011
     10 N         144.1858  142.9682  162.9627 N.ar    1  UNL1       -0.2251
     11 C         143.9105  141.7758  162.0953 C.ar    1  UNL1        0.1633
     12 C         142.6741  141.7442  166.4220 C.ar    1  UNL1        0.0307
     13 C         143.3507  142.4840  167.5377 C.ar    1  UNL1        0.0067
     14 C         142.6078  142.1891  168.8070 C.ar    1  UNL1        0.0027
     15 C         141.4720  141.2669  168.4757 C.ar    1  UNL1        0.0069
     16 S         141.5130  140.9920  167.0017 S.2     1  UNL1       -0.0912
     17 C         140.4710  140.7164  169.4478 C.3     1  UNL1        0.0285
     18 C         140.1627  139.9810  170.7182 C.3     1  UNL1        0.0052
     19 C         139.0456  140.4982  169.8610 C.3     1  UNL1        0.0052
     20 C         142.4564  138.1973  161.7142 C.3     1  UNL1        0.1956
     21 C         140.9626  138.0637  161.7426 C.2     1  UNL1        0.2489
     22 O         140.1757  138.1703  160.4700 O.2     1  UNL1       -0.2728
     23 N         140.2556  137.8235  163.0436 N.am    1  UNL1       -0.2778
     24 C         138.8247  137.6427  163.4555 C.3     1  UNL1        0.0952
     25 C         139.2559  137.4838  164.8835 C.3     1  UNL1        0.0430
     26 C         140.6868  137.6647  164.4715 C.3     1  UNL1        0.0952
@<TRIPOS>BOND
     1     1     2    1
     2     2     3   ar
     3     3     4    2
     4     3     5   ar
     5     5    20    1
     6    20    21    1
     7    21    22    2
     8    21    23   am
     9    23    24    1
    10    24    25    1
    11    25    26    1
    12     5     6   ar
    13     6     7   ar
    14     7     8   ar
    15     8    12    1
    16    12    13   ar
    17    13    14   ar
    18    14    15   ar
    19    15    17    1
    20    17    18    1
    21    18    19    1
    22    15    16   ar
    23     8     9   ar
    24     9    10   ar
    25    10    11   ar
    26    11     2   ar
    27    26    23    1
    28    11     6   ar
    29    16    12   ar
    30    19    17    1
@<TRIPOS>MOLECULE
*****
 26 30 0 0 0
SMALL
GASTEIGER

@<TRIPOS>ATOM
      1 C         141.3862  143.2203  156.2964 C.3     1  UNL1        0.1366
      2 N         140.9503  143.3869  157.7220 N.ar    1  UNL1       -0.2630
      3 C         140.7807  144.6898  158.4456 C.ar    1  UNL1        0.3331
      4 O         141.0173  146.0549  157.8708 O.2     1  UNL1       -0.2462
      5 N         140.3330  144.3879  159.8450 N.ar    1  UNL1       -0.2694
      6 C         140.2258  142.8984  159.9863 C.ar    1  UNL1        0.0986
      7 C         139.8302  142.0255  161.1402 C.ar    1  UNL1        0.0224
      8 C         139.8160  140.5340  160.9819 C.ar    1  UNL1        0.0267
      9 C         140.1975  139.9153  159.6698 C.ar    1  UNL1        0.1011
     10 N         140.5932  140.7882  158.5159 N.ar    1  UNL1       -0.2251
     11 C         140.6073  142.2797  158.6741 C.ar    1  UNL1        0.1633
     12 C         139.4203  139.6610  162.1358 C.ar    1  UNL1        0.0307
     13 C         139.1989  138.1784  162.0844 C.ar    1  UNL1        0.0067
     14 C         138.8183  137.7185  163.4605 C.ar    1  UNL1        0.0027
     15 C         138.8046  138.9170  164.3625 C.ar    1  UNL1        0.0069
     16 S         139.1766  140.1175  163.5437 S.2     1  UNL1       -0.0912
     17 C         138.4764  138.9153  165.8261 C.3     1  UNL1        0.0285
     18 C         137.6415  138.4200  166.9695 C.3     1  UNL1        0.0052
     19 C         138.7429  139.4075  167.2178 C.3     1  UNL1        0.0052
     20 C         140.0433  145.3981  160.9153 C.3     1  UNL1        0.1956
     21 C         140.4250  145.1140  162.3379 C.2     1  UNL1        0.2489
     22 O         141.8510  145.2683  162.7770 O.2     1  UNL1       -0.2728
     23 N         139.3807  144.6756  163.3214 N.am    1  UNL1       -0.2778
     24 C         139.3803  144.3126  164.7768 C.3     1  UNL1        0.0952
     25 C         137.9039  144.0556  164.7123 C.3     1  UNL1        0.0430
     26 C         137.9043  144.4185  163.2569 C.3     1  UNL1        0.0952
@<TRIPOS>BOND
     1     1     2    1
     2     2     3   ar
     3     3     4    2
     4     3     5   ar
     5     5    20    1
     6    20    21    1
     7    21    22    2
     8    21    23   am
     9    23    24    1
    10    24    25    1
    11    25    26    1
    12     5     6   ar
    13     6     7   ar
    14     7     8   ar
    15     8    12    1
    16    12    13   ar
    17    13    14   ar
    18    14    15   ar
    19    15    17    1
    20    17    18    1
    21    18    19    1
    22    15    16   ar
    23     8     9   ar
    24     9    10   ar
    25    10    11   ar
    26    11     2   ar
    27    26    23    1
    28    11     6   ar
    29    16    12   ar
    30    19    17    1
@<TRIPOS>MOLECULE
*****
 26 30 0 0 0
SMALL
GASTEIGER

@<TRIPOS>ATOM
      1 C         140.4279  145.2146  159.3319 C.3     1  UNL1        0.1366
      2 N         140.0158  144.1614  160.3172 N.ar    1  UNL1       -0.2630
      3 C         138.9723  143.1068  160.0958 C.ar    1  UNL1        0.3331
      4 O         138.1576  142.9204  158.8502 O.2     1  UNL1       -0.2462
      5 N         138.8865  142.2715  161.3387 N.ar    1  UNL1       -0.2694
      6 C         139.8770  142.8098  162.3283 C.ar    1  UNL1        0.0986
      7 C         140.2336  142.3872  163.7226 C.ar    1  UNL1        0.0224
      8 C         141.2881  143.1327  164.4857 C.ar    1  UNL1        0.0267
      9 C         141.9860  144.3008  163.8543 C.ar    1  UNL1        0.1011
     10 N         141.6295  144.7233  162.4600 N.ar    1  UNL1       -0.2251
     11 C         140.5750  143.9778  161.6969 C.ar    1  UNL1        0.1633
     12 C         141.6446  142.7102  165.8801 C.ar    1  UNL1        0.0307
     13 C         143.0316  142.4894  166.4070 C.ar    1  UNL1        0.0067
     14 C         142.9210  142.0771  167.8449 C.ar    1  UNL1        0.0027
     15 C         141.4656  142.0431  168.2068 C.ar    1  UNL1        0.0069
     16 S         140.6768  142.4344  166.9925 S.2     1  UNL1       -0.0912
     17 C         140.8987  141.6813  169.5476 C.3     1  UNL1        0.0285
     18 C         139.8526  140.9920  170.3725 C.3     1  UNL1        0.0052
     19 C         140.9628  141.7439  171.0449 C.3     1  UNL1        0.0052
     20 C         137.9710  141.1030  161.5543 C.3     1  UNL1        0.1956
     21 C         138.5139  139.7055  161.5037 C.2     1  UNL1        0.2489
     22 O         138.8389  139.0745  160.1823 O.2     1  UNL1       -0.2728
     23 N         138.7317  138.9391  162.7746 N.am    1  UNL1       -0.2778
     24 C         139.2400  137.5691  163.1130 C.3     1  UNL1        0.0952
     25 C         139.0397  137.8552  164.5719 C.3     1  UNL1        0.0430
     26 C         138.5314  139.2252  164.2334 C.3     1  UNL1        0.0952
@<TRIPOS>BOND
     1     1     2    1
     2     2     3   ar
     3     3     4    2
     4     3     5   ar
     5     5    20    1
     6    20    21    1
     7    21    22    2
     8    21    23   am
     9    23    24    1
    10    24    25    1
    11    25    26    1
    12     5     6   ar
    13     6     7   ar
    14     7     8   ar
    15     8    12    1
    16    12    13   ar
    17    13    14   ar
    18    14    15   ar
    19    15    17    1
    20    17    18    1
    21    18    19    1
    22    15    16   ar
    23     8     9   ar
    24     9    10   ar
    25    10    11   ar
    26    11     2   ar
    27    26    23    1
    28    11     6   ar
    29    16    12   ar
    30    19    17    1
