@<TRIPOS>MOLECULE
*****
 40 44 0 0 0
SMALL
GASTEIGER

@<TRIPOS>ATOM
      1 N         140.8325  139.3314  160.8353 N.pl3   1  UNL1       -0.3426
      2 C         141.0639  139.3648  162.3170 C.ar    1  UNL1        0.1258
      3 N         141.2628  138.0853  163.0741 N.ar    1  UNL1       -0.2296
      4 C         141.4941  138.1188  164.5557 C.ar    1  UNL1        0.1008
      5 C         141.5266  139.4318  165.2803 C.ar    1  UNL1        0.0283
      6 C         141.3277  140.7113  164.5232 C.ar    1  UNL1        0.0337
      7 S         141.3078  142.1452  164.9632 S.2     1  UNL1       -0.0863
      8 C         141.0641  142.9979  163.7535 C.ar    1  UNL1        0.0355
      9 C         140.9334  142.0910  162.5658 C.ar    1  UNL1        0.0096
     10 C         141.0963  140.6778  163.0415 C.ar    1  UNL1        0.0377
     11 H         140.8112  138.4696  160.3597 H       1  UNL1        0.1437
     12 H         140.7020  140.1712  160.3384 H       1  UNL1        0.1437
     13 C         140.6837  142.5218  161.1509 C.ar    1  UNL1        0.0007
     14 C         141.8365  142.8882  160.2639 C.ar    1  UNL1        0.0013
     15 C         141.5868  143.3190  158.8489 C.ar    1  UNL1        0.0147
     16 C         140.1843  143.3833  158.3209 C.ar    1  UNL1        0.0516
     17 C         139.0315  143.0169  159.2080 C.ar    1  UNL1        0.0147
     18 C         139.2811  142.5862  160.6229 C.ar    1  UNL1        0.0013
     19 N         139.9346  143.8141  156.9060 N.am    1  UNL1       -0.2681
     20 C         139.9412  145.2721  156.5537 C.2     1  UNL1        0.3082
     21 O         140.1976  146.2993  157.6162 O.2     1  UNL1       -0.2522
     22 N         139.6915  145.7028  155.1387 N.am    1  UNL1       -0.2680
     23 H         139.7663  143.1399  156.2086 H       1  UNL1        0.1564
     24 H         139.5232  145.0286  154.4413 H       1  UNL1        0.1564
     25 C         139.6981  147.1609  154.7863 C.ar    1  UNL1        0.0538
     26 C         140.5622  147.6575  153.6653 C.ar    1  UNL1        0.0149
     27 C         140.5689  149.1156  153.3129 C.ar    1  UNL1        0.0036
     28 C         139.7114  150.0769  154.0815 C.ar    1  UNL1        0.0297
     29 C         138.8473  149.5801  155.2025 C.ar    1  UNL1        0.1414
     30 F         137.9898  150.5414  155.9710 F       1  UNL1       -0.2041
     31 C         138.8406  148.1222  155.5549 C.ar    1  UNL1        0.0443
     32 C         141.7580  139.4652  166.7620 C.ar    1  UNL1        0.0416
     33 C         143.0208  139.0662  167.4665 C.ar    1  UNL1        0.1217
     34 N         142.8103  139.2579  168.9392 N.ar    1  UNL1       -0.1676
     35 N         141.4175  139.7753  169.1449 N.ar    1  UNL1       -0.2468
     36 C         140.7671  139.9034  167.7994 C.ar    1  UNL1        0.0968
     37 C         140.7859  140.1064  170.4646 C.3     1  UNL1        0.1591
     38 C         141.3950  141.1570  171.3451 C.3     1  UNL1        0.1635
     39 O         140.5162  142.1516  172.0440 O.3     1  UNL1       -0.3799
     40 H         140.0855  142.7203  171.3868 H       1  UNL1        0.2105
@<TRIPOS>BOND
     1     1     2    1
     2     2     3   ar
     3     3     4   ar
     4     4     5   ar
     5     5    32    1
     6    32    33   ar
     7    33    34   ar
     8    34    35   ar
     9    35    37    1
    10    37    38    1
    11    38    39    1
    12    35    36   ar
    13     5     6   ar
    14     6     7   ar
    15     7     8   ar
    16     8     9   ar
    17     9    13    1
    18    13    14   ar
    19    14    15   ar
    20    15    16   ar
    21    16    19    1
    22    19    20   am
    23    20    21    2
    24    20    22   am
    25    22    25    1
    26    25    26   ar
    27    26    27   ar
    28    27    28   ar
    29    28    29   ar
    30    29    30    1
    31    29    31   ar
    32    16    17   ar
    33    17    18   ar
    34     9    10   ar
    35    10     2   ar
    36    36    32   ar
    37    10     6   ar
    38    18    13   ar
    39    31    25   ar
    40     1    11    1
    41     1    12    1
    42    39    40    1
    43    19    23    1
    44    22    24    1
@<TRIPOS>MOLECULE
*****
 40 44 0 0 0
SMALL
GASTEIGER

@<TRIPOS>ATOM
      1 N         138.8150  145.2341  162.0930 N.pl3   1  UNL1       -0.3426
      2 C         139.2581  144.4055  163.2623 C.ar    1  UNL1        0.1258
      3 N         138.8820  144.8133  164.6559 N.ar    1  UNL1       -0.2296
      4 C         139.3251  143.9848  165.8251 C.ar    1  UNL1        0.1008
      5 C         140.1443  142.7483  165.6007 C.ar    1  UNL1        0.0283
      6 C         140.5203  142.3406  164.2071 C.ar    1  UNL1        0.0337
      7 S         141.3135  141.1817  163.6800 S.2     1  UNL1       -0.0863
      8 C         141.3607  141.2941  162.1850 C.ar    1  UNL1        0.0355
      9 C         140.5966  142.5224  161.7881 C.ar    1  UNL1        0.0096
     10 C         140.0772  143.1691  163.0379 C.ar    1  UNL1        0.0377
     11 H         138.2773  146.0455  162.2403 H       1  UNL1        0.1437
     12 H         139.0618  144.9664  161.1783 H       1  UNL1        0.1437
     13 C         140.3885  143.0170  160.3874 C.ar    1  UNL1        0.0007
     14 C         141.4341  143.8676  159.7293 C.ar    1  UNL1        0.0013
     15 C         141.2260  144.3623  158.3285 C.ar    1  UNL1        0.0147
     16 C         139.9723  144.0064  157.5859 C.ar    1  UNL1        0.0516
     17 C         138.9267  143.1557  158.2441 C.ar    1  UNL1        0.0147
     18 C         139.1347  142.6610  159.6448 C.ar    1  UNL1        0.0013
     19 N         139.7642  144.5010  156.1852 N.am    1  UNL1       -0.2681
     20 C         139.8064  145.9721  155.8953 C.2     1  UNL1        0.3082
     21 O         140.0568  146.9485  157.0061 O.2     1  UNL1       -0.2522
     22 N         139.5983  146.4667  154.4946 N.am    1  UNL1       -0.2680
     23 H         139.5998  143.8601  155.4562 H       1  UNL1        0.1564
     24 H         139.4339  145.8258  153.7656 H       1  UNL1        0.1564
     25 C         139.6405  147.9379  154.2047 C.ar    1  UNL1        0.0538
     26 C         140.4006  148.4464  153.0157 C.ar    1  UNL1        0.0149
     27 C         140.4428  149.9175  152.7257 C.ar    1  UNL1        0.0036
     28 C         139.7250  150.8801  153.6247 C.ar    1  UNL1        0.0297
     29 C         138.9649  150.3715  154.8137 C.ar    1  UNL1        0.1414
     30 F         138.2471  151.3340  155.7126 F       1  UNL1       -0.2041
     31 C         138.9226  148.9004  155.1037 C.ar    1  UNL1        0.0443
     32 C         140.5873  141.9198  166.7701 C.ar    1  UNL1        0.0416
     33 C         139.8709  140.7249  167.3259 C.ar    1  UNL1        0.1217
     34 N         140.6655  140.2074  168.4882 N.ar    1  UNL1       -0.1676
     35 N         141.8729  141.0824  168.6506 N.ar    1  UNL1       -0.2468
     36 C         141.8246  142.1408  167.5888 C.ar    1  UNL1        0.0968
     37 C         142.9411  140.9266  169.6921 C.3     1  UNL1        0.1591
     38 C         142.8324  139.8410  170.7215 C.3     1  UNL1        0.1635
     39 O         144.0532  139.3890  171.4666 O.3     1  UNL1       -0.3799
     40 H         144.6705  138.9661  170.8493 H       1  UNL1        0.2105
@<TRIPOS>BOND
     1     1     2    1
     2     2     3   ar
     3     3     4   ar
     4     4     5   ar
     5     5    32    1
     6    32    33   ar
     7    33    34   ar
     8    34    35   ar
     9    35    37    1
    10    37    38    1
    11    38    39    1
    12    35    36   ar
    13     5     6   ar
    14     6     7   ar
    15     7     8   ar
    16     8     9   ar
    17     9    13    1
    18    13    14   ar
    19    14    15   ar
    20    15    16   ar
    21    16    19    1
    22    19    20   am
    23    20    21    2
    24    20    22   am
    25    22    25    1
    26    25    26   ar
    27    26    27   ar
    28    27    28   ar
    29    28    29   ar
    30    29    30    1
    31    29    31   ar
    32    16    17   ar
    33    17    18   ar
    34     9    10   ar
    35    10     2   ar
    36    36    32   ar
    37    10     6   ar
    38    18    13   ar
    39    31    25   ar
    40     1    11    1
    41     1    12    1
    42    39    40    1
    43    19    23    1
    44    22    24    1
@<TRIPOS>MOLECULE
*****
 40 44 0 0 0
SMALL
GASTEIGER

@<TRIPOS>ATOM
      1 N         142.4369  144.7477  161.4852 N.pl3   1  UNL1       -0.3426
      2 C         142.5345  143.7568  162.6071 C.ar    1  UNL1        0.1258
      3 N         143.2207  144.1366  163.8856 N.ar    1  UNL1       -0.2296
      4 C         143.3183  143.1458  165.0075 C.ar    1  UNL1        0.1008
      5 C         142.7297  141.7750  164.8509 C.ar    1  UNL1        0.0283
      6 C         142.0434  141.3951  163.5723 C.ar    1  UNL1        0.0337
      7 S         141.3735  140.1277  163.1309 S.2     1  UNL1       -0.0863
      8 C         140.8619  140.3353  161.7362 C.ar    1  UNL1        0.0355
      9 C         141.2156  141.7310  161.3156 C.ar    1  UNL1        0.0096
     10 C         141.9458  142.3860  162.4504 C.ar    1  UNL1        0.0377
     11 H         142.8232  145.6473  161.5880 H       1  UNL1        0.1437
     12 H         141.9865  144.4983  160.6460 H       1  UNL1        0.1437
     13 C         140.8953  142.3610  159.9926 C.ar    1  UNL1        0.0007
     14 C         139.5339  142.9413  159.7483 C.ar    1  UNL1        0.0013
     15 C         139.2135  143.5714  158.4252 C.ar    1  UNL1        0.0147
     16 C         140.2545  143.6210  157.3465 C.ar    1  UNL1        0.0516
     17 C         141.6160  143.0407  157.5909 C.ar    1  UNL1        0.0147
     18 C         141.9364  142.4107  158.9139 C.ar    1  UNL1        0.0013
     19 N         139.9342  144.2510  156.0235 N.am    1  UNL1       -0.2681
     20 C         139.9550  145.7439  155.8790 C.2     1  UNL1        0.3082
     21 O         140.2960  146.6068  157.0577 O.2     1  UNL1       -0.2522
     22 N         139.6347  146.3739  154.5560 N.am    1  UNL1       -0.2680
     23 H         139.7104  143.6847  155.2499 H       1  UNL1        0.1564
     24 H         139.4108  145.8076  153.7824 H       1  UNL1        0.1564
     25 C         139.6554  147.8669  154.4115 C.ar    1  UNL1        0.0538
     26 C         140.4815  148.5046  153.3341 C.ar    1  UNL1        0.0149
     27 C         140.5023  149.9976  153.1897 C.ar    1  UNL1        0.0036
     28 C         139.6969  150.8526  154.1226 C.ar    1  UNL1        0.0297
     29 C         138.8708  150.2148  155.2000 C.ar    1  UNL1        0.1414
     30 F         138.0655  151.0698  156.1328 F       1  UNL1       -0.2041
     31 C         138.8500  148.7219  155.3444 C.ar    1  UNL1        0.0443
     32 C         142.8273  140.7841  165.9728 C.ar    1  UNL1        0.0416
     33 C         143.4871  139.4387  165.9060 C.ar    1  UNL1        0.1217
     34 N         143.3498  138.7879  167.2505 N.ar    1  UNL1       -0.1676
     35 N         142.6052  139.7311  168.1482 N.ar    1  UNL1       -0.2468
     36 C         142.2823  140.9649  167.3585 C.ar    1  UNL1        0.0968
     37 C         142.2465  139.4840  169.5836 C.3     1  UNL1        0.1591
     38 C         142.9748  140.2114  170.6747 C.3     1  UNL1        0.1635
     39 O         144.0360  139.5071  171.4668 O.3     1  UNL1       -0.3799
     40 H         143.6320  138.7956  171.9877 H       1  UNL1        0.2105
@<TRIPOS>BOND
     1     1     2    1
     2     2     3   ar
     3     3     4   ar
     4     4     5   ar
     5     5    32    1
     6    32    33   ar
     7    33    34   ar
     8    34    35   ar
     9    35    37    1
    10    37    38    1
    11    38    39    1
    12    35    36   ar
    13     5     6   ar
    14     6     7   ar
    15     7     8   ar
    16     8     9   ar
    17     9    13    1
    18    13    14   ar
    19    14    15   ar
    20    15    16   ar
    21    16    19    1
    22    19    20   am
    23    20    21    2
    24    20    22   am
    25    22    25    1
    26    25    26   ar
    27    26    27   ar
    28    27    28   ar
    29    28    29   ar
    30    29    30    1
    31    29    31   ar
    32    16    17   ar
    33    17    18   ar
    34     9    10   ar
    35    10     2   ar
    36    36    32   ar
    37    10     6   ar
    38    18    13   ar
    39    31    25   ar
    40     1    11    1
    41     1    12    1
    42    39    40    1
    43    19    23    1
    44    22    24    1
@<TRIPOS>MOLECULE
*****
 40 44 0 0 0
SMALL
GASTEIGER

@<TRIPOS>ATOM
      1 N         142.8956  137.8734  162.6878 N.pl3   1  UNL1       -0.3426
      2 C         142.7374  138.7870  163.8669 C.ar    1  UNL1        0.1258
      3 N         142.8101  138.2340  165.2593 N.ar    1  UNL1       -0.2296
      4 C         142.6519  139.1476  166.4384 C.ar    1  UNL1        0.1008
      5 C         142.4211  140.6143  166.2251 C.ar    1  UNL1        0.0283
      6 C         142.3484  141.1674  164.8327 C.ar    1  UNL1        0.0337
      7 S         142.1329  142.5588  164.3154 S.2     1  UNL1       -0.0863
      8 C         142.1578  142.5050  162.8165 C.ar    1  UNL1        0.0355
      9 C         142.3888  141.0805  162.4075 C.ar    1  UNL1        0.0096
     10 C         142.5066  140.2537  163.6536 C.ar    1  UNL1        0.0377
     11 H         143.0471  136.9108  162.8279 H       1  UNL1        0.1437
     12 H         142.8479  138.2364  161.7739 H       1  UNL1        0.1437
     13 C         142.4851  140.5719  160.9996 C.ar    1  UNL1        0.0007
     14 C         143.8131  140.5397  160.3031 C.ar    1  UNL1        0.0013
     15 C         143.9095  140.0311  158.8951 C.ar    1  UNL1        0.0147
     16 C         142.6778  139.5549  158.1839 C.ar    1  UNL1        0.0516
     17 C         141.3497  139.5872  158.8805 C.ar    1  UNL1        0.0147
     18 C         141.2533  140.0957  160.2883 C.ar    1  UNL1        0.0013
     19 N         142.7741  139.0464  156.7760 N.am    1  UNL1       -0.2681
     20 C         142.7693  137.5702  156.5098 C.2     1  UNL1        0.3082
     21 O         142.6683  136.6026  157.6516 O.2     1  UNL1       -0.2522
     22 N         142.8656  137.0617  155.1020 N.am    1  UNL1       -0.2680
     23 H         142.8404  139.6815  156.0267 H       1  UNL1        0.1564
     24 H         142.9319  137.6968  154.3526 H       1  UNL1        0.1564
     25 C         142.8609  135.5854  154.8357 C.ar    1  UNL1        0.0538
     26 C         141.9550  135.0159  153.7845 C.ar    1  UNL1        0.0149
     27 C         141.9502  133.5397  153.5183 C.ar    1  UNL1        0.0036
     28 C         142.8513  132.6331  154.3033 C.ar    1  UNL1        0.0297
     29 C         143.7572  133.2027  155.3545 C.ar    1  UNL1        0.1414
     30 F         144.6582  132.2961  156.1394 F       1  UNL1       -0.2041
     31 C         143.7620  134.6789  155.6207 C.ar    1  UNL1        0.0443
     32 C         142.2629  141.5279  167.4043 C.ar    1  UNL1        0.0416
     33 C         143.3619  141.9928  168.3131 C.ar    1  UNL1        0.1217
     34 N         142.7561  142.8892  169.3521 N.ar    1  UNL1       -0.1676
     35 N         141.2827  142.9783  169.0853 N.ar    1  UNL1       -0.2468
     36 C         140.9779  142.1370  167.8815 C.ar    1  UNL1        0.0968
     37 C         140.2886  143.7698  169.8824 C.3     1  UNL1        0.1591
     38 C         139.5969  143.1411  171.0556 C.3     1  UNL1        0.1635
     39 O         140.3485  142.2073  171.9572 O.3     1  UNL1       -0.3799
     40 H         140.5915  141.4079  171.4646 H       1  UNL1        0.2105
@<TRIPOS>BOND
     1     1     2    1
     2     2     3   ar
     3     3     4   ar
     4     4     5   ar
     5     5    32    1
     6    32    33   ar
     7    33    34   ar
     8    34    35   ar
     9    35    37    1
    10    37    38    1
    11    38    39    1
    12    35    36   ar
    13     5     6   ar
    14     6     7   ar
    15     7     8   ar
    16     8     9   ar
    17     9    13    1
    18    13    14   ar
    19    14    15   ar
    20    15    16   ar
    21    16    19    1
    22    19    20   am
    23    20    21    2
    24    20    22   am
    25    22    25    1
    26    25    26   ar
    27    26    27   ar
    28    27    28   ar
    29    28    29   ar
    30    29    30    1
    31    29    31   ar
    32    16    17   ar
    33    17    18   ar
    34     9    10   ar
    35    10     2   ar
    36    36    32   ar
    37    10     6   ar
    38    18    13   ar
    39    31    25   ar
    40     1    11    1
    41     1    12    1
    42    39    40    1
    43    19    23    1
    44    22    24    1
@<TRIPOS>MOLECULE
*****
 40 44 0 0 0
SMALL
GASTEIGER

@<TRIPOS>ATOM
      1 N         138.1796  141.4569  158.9064 N.pl3   1  UNL1       -0.3426
      2 C         138.5764  142.5788  157.9933 C.ar    1  UNL1        0.1258
      3 N         138.0049  142.6567  156.6086 N.ar    1  UNL1       -0.2296
      4 C         138.4016  143.7785  155.6955 C.ar    1  UNL1        0.1008
      5 C         139.3699  144.8227  156.1670 C.ar    1  UNL1        0.0283
      6 C         139.9414  144.7449  157.5516 C.ar    1  UNL1        0.0337
      7 S         140.9095  145.6221  158.2886 S.2     1  UNL1       -0.0863
      8 C         141.1110  145.0424  159.6573 C.ar    1  UNL1        0.0355
      9 C         140.2675  143.8068  159.7662 C.ar    1  UNL1        0.0096
     10 C         139.5446  143.6229  158.4648 C.ar    1  UNL1        0.0377
     11 H         137.5441  140.7716  158.5970 H       1  UNL1        0.1437
     12 H         138.5547  141.4058  159.8153 H       1  UNL1        0.1437
     13 C         140.1649  142.9122  160.9659 C.ar    1  UNL1        0.0007
     14 C         139.0756  143.1311  161.9736 C.ar    1  UNL1        0.0013
     15 C         138.9730  142.2365  163.1734 C.ar    1  UNL1        0.0147
     16 C         139.9595  141.1231  163.3652 C.ar    1  UNL1        0.0516
     17 C         141.0488  140.9043  162.3574 C.ar    1  UNL1        0.0147
     18 C         141.1515  141.7988  161.1577 C.ar    1  UNL1        0.0013
     19 N         139.8569  140.2285  164.5649 N.am    1  UNL1       -0.2681
     20 C         140.4080  140.6787  165.8854 C.2     1  UNL1        0.3082
     21 O         141.0616  142.0233  166.0062 O.2     1  UNL1       -0.2522
     22 N         140.3054  139.7841  167.0850 N.am    1  UNL1       -0.2680
     23 H         139.4279  139.3460  164.4856 H       1  UNL1        0.1564
     24 H         139.8763  138.9015  167.0057 H       1  UNL1        0.1564
     25 C         140.8564  140.2342  168.4056 C.ar    1  UNL1        0.0538
     26 C         142.1477  139.6638  168.9130 C.ar    1  UNL1        0.0149
     27 C         142.6988  140.1139  170.2336 C.ar    1  UNL1        0.0036
     28 C         141.9586  141.1343  171.0466 C.ar    1  UNL1        0.0297
     29 C         140.6673  141.7045  170.5392 C.ar    1  UNL1        0.1414
     30 F         139.9272  142.7248  171.3523 F       1  UNL1       -0.2041
     31 C         140.1162  141.2545  169.2187 C.ar    1  UNL1        0.0443
     32 C         139.7667  145.9446  155.2537 C.ar    1  UNL1        0.0416
     33 C         140.6867  145.8377  154.0739 C.ar    1  UNL1        0.1217
     34 N         140.8016  147.1974  153.4510 N.ar    1  UNL1       -0.1676
     35 N         139.9526  148.1446  154.2459 N.ar    1  UNL1       -0.2468
     36 C         139.3129  147.3704  155.3601 C.ar    1  UNL1        0.0968
     37 C         139.7744  149.6091  153.9744 C.3     1  UNL1        0.1591
     38 C         139.1422  150.4923  155.0090 C.3     1  UNL1        0.1635
     39 O         139.9866  151.4534  155.7919 O.3     1  UNL1       -0.3799
     40 H         140.6020  150.9585  156.3552 H       1  UNL1        0.2105
@<TRIPOS>BOND
     1     1     2    1
     2     2     3   ar
     3     3     4   ar
     4     4     5   ar
     5     5    32    1
     6    32    33   ar
     7    33    34   ar
     8    34    35   ar
     9    35    37    1
    10    37    38    1
    11    38    39    1
    12    35    36   ar
    13     5     6   ar
    14     6     7   ar
    15     7     8   ar
    16     8     9   ar
    17     9    13    1
    18    13    14   ar
    19    14    15   ar
    20    15    16   ar
    21    16    19    1
    22    19    20   am
    23    20    21    2
    24    20    22   am
    25    22    25    1
    26    25    26   ar
    27    26    27   ar
    28    27    28   ar
    29    28    29   ar
    30    29    30    1
    31    29    31   ar
    32    16    17   ar
    33    17    18   ar
    34     9    10   ar
    35    10     2   ar
    36    36    32   ar
    37    10     6   ar
    38    18    13   ar
    39    31    25   ar
    40     1    11    1
    41     1    12    1
    42    39    40    1
    43    19    23    1
    44    22    24    1
@<TRIPOS>MOLECULE
*****
 40 44 0 0 0
SMALL
GASTEIGER

@<TRIPOS>ATOM
      1 N         140.0115  141.7894  161.5138 N.pl3   1  UNL1       -0.3426
      2 C         140.2062  141.8620  162.9993 C.ar    1  UNL1        0.1258
      3 N         139.0184  141.8204  163.9143 N.ar    1  UNL1       -0.2296
      4 C         139.2131  141.8930  165.3998 C.ar    1  UNL1        0.1008
      5 C         140.5956  142.0072  165.9704 C.ar    1  UNL1        0.0283
      6 C         141.7835  142.0487  165.0554 C.ar    1  UNL1        0.0337
      7 S         143.2550  142.1567  165.3253 S.2     1  UNL1       -0.0863
      8 C         143.9698  142.1509  164.0066 C.ar    1  UNL1        0.0355
      9 C         142.9400  142.0393  162.9216 C.ar    1  UNL1        0.0096
     10 C         141.5888  141.9762  163.5698 C.ar    1  UNL1        0.0377
     11 H         139.1041  141.7145  161.1393 H       1  UNL1        0.1437
     12 H         140.7912  141.8167  160.9132 H       1  UNL1        0.1437
     13 C         143.2135  141.9980  161.4474 C.ar    1  UNL1        0.0007
     14 C         143.5795  140.7012  160.7885 C.ar    1  UNL1        0.0013
     15 C         143.8530  140.6599  159.3141 C.ar    1  UNL1        0.0147
     16 C         143.7605  141.9154  158.4988 C.ar    1  UNL1        0.0516
     17 C         143.3945  143.2124  159.1578 C.ar    1  UNL1        0.0147
     18 C         143.1210  143.2537  160.6320 C.ar    1  UNL1        0.0013
     19 N         144.0340  141.8742  157.0245 N.am    1  UNL1       -0.2681
     20 C         145.4041  142.1975  156.5066 C.2     1  UNL1        0.3082
     21 O         146.5007  142.5619  157.4630 O.2     1  UNL1       -0.2522
     22 N         145.6775  142.1562  155.0323 N.am    1  UNL1       -0.2680
     23 H         143.3142  141.6350  156.3969 H       1  UNL1        0.1564
     24 H         144.9578  141.9170  154.4047 H       1  UNL1        0.1564
     25 C         147.0477  142.4795  154.5143 C.ar    1  UNL1        0.0538
     26 C         147.2435  143.6406  153.5850 C.ar    1  UNL1        0.0149
     27 C         148.6137  143.9638  153.0670 C.ar    1  UNL1        0.0036
     28 C         149.7879  143.1260  153.4784 C.ar    1  UNL1        0.0297
     29 C         149.5921  141.9649  154.4077 C.ar    1  UNL1        0.1414
     30 F         150.7663  141.1272  154.8189 F       1  UNL1       -0.2041
     31 C         148.2220  141.6417  154.9256 C.ar    1  UNL1        0.0443
     32 C         140.7903  142.0797  167.4560 C.ar    1  UNL1        0.0416
     33 C         140.3249  143.1882  168.3531 C.ar    1  UNL1        0.1217
     34 N         140.7315  142.8501  169.7568 N.ar    1  UNL1       -0.1676
     35 N         141.4481  141.5326  169.7272 N.ar    1  UNL1       -0.2468
     36 C         141.4844  141.0565  168.3052 C.ar    1  UNL1        0.0968
     37 C         142.0268  140.8168  170.9116 C.3     1  UNL1        0.1591
     38 C         142.9637  139.6635  170.7068 C.3     1  UNL1        0.1635
     39 O         144.1095  139.4513  171.6512 O.3     1  UNL1       -0.3799
     40 H         144.7368  140.1866  171.5689 H       1  UNL1        0.2105
@<TRIPOS>BOND
     1     1     2    1
     2     2     3   ar
     3     3     4   ar
     4     4     5   ar
     5     5    32    1
     6    32    33   ar
     7    33    34   ar
     8    34    35   ar
     9    35    37    1
    10    37    38    1
    11    38    39    1
    12    35    36   ar
    13     5     6   ar
    14     6     7   ar
    15     7     8   ar
    16     8     9   ar
    17     9    13    1
    18    13    14   ar
    19    14    15   ar
    20    15    16   ar
    21    16    19    1
    22    19    20   am
    23    20    21    2
    24    20    22   am
    25    22    25    1
    26    25    26   ar
    27    26    27   ar
    28    27    28   ar
    29    28    29   ar
    30    29    30    1
    31    29    31   ar
    32    16    17   ar
    33    17    18   ar
    34     9    10   ar
    35    10     2   ar
    36    36    32   ar
    37    10     6   ar
    38    18    13   ar
    39    31    25   ar
    40     1    11    1
    41     1    12    1
    42    39    40    1
    43    19    23    1
    44    22    24    1
@<TRIPOS>MOLECULE
*****
 40 44 0 0 0
SMALL
GASTEIGER

@<TRIPOS>ATOM
      1 N         139.5811  138.4840  162.3768 N.pl3   1  UNL1       -0.3426
      2 C         139.6977  138.9490  163.7981 C.ar    1  UNL1        0.1258
      3 N         138.6119  138.6308  164.7828 N.ar    1  UNL1       -0.2296
      4 C         138.7284  139.0958  166.2040 C.ar    1  UNL1        0.1008
      5 C         139.9309  139.8792  166.6407 C.ar    1  UNL1        0.0283
      6 C         141.0167  140.1974  165.6560 C.ar    1  UNL1        0.0337
      7 S         142.3091  140.9460  165.7942 S.2     1  UNL1       -0.0863
      8 C         142.9913  140.9436  164.4584 C.ar    1  UNL1        0.0355
      9 C         142.1205  140.1935  163.4945 C.ar    1  UNL1        0.0096
     10 C         140.9001  139.7324  164.2347 C.ar    1  UNL1        0.0377
     11 H         138.7919  137.9698  162.0902 H       1  UNL1        0.1437
     12 H         140.2937  138.6928  161.7304 H       1  UNL1        0.1437
     13 C         142.4179  139.9478  162.0449 C.ar    1  UNL1        0.0007
     14 C         143.4104  138.8943  161.6511 C.ar    1  UNL1        0.0013
     15 C         143.7079  138.6485  160.2015 C.ar    1  UNL1        0.0147
     16 C         143.0128  139.4561  159.1459 C.ar    1  UNL1        0.0516
     17 C         142.0203  140.5097  159.5398 C.ar    1  UNL1        0.0147
     18 C         141.7229  140.7555  160.9892 C.ar    1  UNL1        0.0013
     19 N         143.3103  139.2104  157.6964 N.am    1  UNL1       -0.2681
     20 C         142.9645  137.8906  157.0731 C.2     1  UNL1        0.3082
     21 O         142.3213  136.8165  157.8994 O.2     1  UNL1       -0.2522
     22 N         143.2619  137.6448  155.6236 N.am    1  UNL1       -0.2680
     23 H         143.7324  139.9153  157.1541 H       1  UNL1        0.1564
     24 H         143.6840  138.3497  155.0813 H       1  UNL1        0.1564
     25 C         142.9161  136.3249  155.0003 C.ar    1  UNL1        0.0538
     26 C         141.8763  136.2545  153.9214 C.ar    1  UNL1        0.0149
     27 C         141.5305  134.9347  153.2981 C.ar    1  UNL1        0.0036
     28 C         142.2245  133.6853  153.7537 C.ar    1  UNL1        0.0297
     29 C         143.2643  133.7558  154.8325 C.ar    1  UNL1        0.1414
     30 F         143.9582  132.5065  155.2880 F       1  UNL1       -0.2041
     31 C         143.6101  135.0756  155.4558 C.ar    1  UNL1        0.0443
     32 C         140.0474  140.3443  168.0621 C.ar    1  UNL1        0.0416
     33 C         139.0550  140.0888  169.1575 C.ar    1  UNL1        0.1217
     34 N         139.5711  140.7331  170.4099 N.ar    1  UNL1       -0.1676
     35 N         140.8824  141.3867  170.0885 N.ar    1  UNL1       -0.2468
     36 C         141.1767  141.1464  168.6374 C.ar    1  UNL1        0.0968
     37 C         141.7475  142.1472  171.0494 C.3     1  UNL1        0.1591
     38 C         142.8846  142.9805  170.5370 C.3     1  UNL1        0.1635
     39 O         143.3922  144.1361  171.3474 O.3     1  UNL1       -0.3799
     40 H         142.7045  144.8177  171.4048 H       1  UNL1        0.2105
@<TRIPOS>BOND
     1     1     2    1
     2     2     3   ar
     3     3     4   ar
     4     4     5   ar
     5     5    32    1
     6    32    33   ar
     7    33    34   ar
     8    34    35   ar
     9    35    37    1
    10    37    38    1
    11    38    39    1
    12    35    36   ar
    13     5     6   ar
    14     6     7   ar
    15     7     8   ar
    16     8     9   ar
    17     9    13    1
    18    13    14   ar
    19    14    15   ar
    20    15    16   ar
    21    16    19    1
    22    19    20   am
    23    20    21    2
    24    20    22   am
    25    22    25    1
    26    25    26   ar
    27    26    27   ar
    28    27    28   ar
    29    28    29   ar
    30    29    30    1
    31    29    31   ar
    32    16    17   ar
    33    17    18   ar
    34     9    10   ar
    35    10     2   ar
    36    36    32   ar
    37    10     6   ar
    38    18    13   ar
    39    31    25   ar
    40     1    11    1
    41     1    12    1
    42    39    40    1
    43    19    23    1
    44    22    24    1
@<TRIPOS>MOLECULE
*****
 40 44 0 0 0
SMALL
GASTEIGER

@<TRIPOS>ATOM
      1 N         144.4411  139.7546  161.6377 N.pl3   1  UNL1       -0.3426
      2 C         143.6016  139.7789  162.8805 C.ar    1  UNL1        0.1258
      3 N         144.0311  139.0041  164.0910 N.ar    1  UNL1       -0.2296
      4 C         143.1917  139.0284  165.3338 C.ar    1  UNL1        0.1008
      5 C         141.9226  139.8275  165.3663 C.ar    1  UNL1        0.0283
      6 C         141.4931  140.6023  164.1558 C.ar    1  UNL1        0.0337
      7 S         140.3010  141.4741  163.8931 S.2     1  UNL1       -0.0863
      8 C         140.4038  141.9885  162.4879 C.ar    1  UNL1        0.0355
      9 C         141.6593  141.4348  161.8821 C.ar    1  UNL1        0.0096
     10 C         142.3326  140.5780  162.9130 C.ar    1  UNL1        0.0377
     11 H         145.2739  139.2301  161.6164 H       1  UNL1        0.1437
     12 H         144.1591  140.2631  160.8432 H       1  UNL1        0.1437
     13 C         142.1546  141.6925  160.4899 C.ar    1  UNL1        0.0007
     14 C         141.9463  140.6647  159.4174 C.ar    1  UNL1        0.0013
     15 C         142.4416  140.9223  158.0252 C.ar    1  UNL1        0.0147
     16 C         143.1452  142.2078  157.7054 C.ar    1  UNL1        0.0516
     17 C         143.3535  143.2357  158.7779 C.ar    1  UNL1        0.0147
     18 C         142.8583  142.9780  160.1701 C.ar    1  UNL1        0.0013
     19 N         143.6405  142.4655  156.3132 N.am    1  UNL1       -0.2681
     20 C         145.1139  142.4850  156.0330 C.2     1  UNL1        0.3082
     21 O         146.0921  142.2468  157.1450 O.2     1  UNL1       -0.2522
     22 N         145.6092  142.7427  154.6408 N.am    1  UNL1       -0.2680
     23 H         142.9985  142.6219  155.5834 H       1  UNL1        0.1564
     24 H         144.9672  142.8991  153.9110 H       1  UNL1        0.1564
     25 C         147.0828  142.7622  154.3605 C.ar    1  UNL1        0.0538
     26 C         147.6594  143.8066  153.4512 C.ar    1  UNL1        0.0149
     27 C         149.1329  143.8261  153.1710 C.ar    1  UNL1        0.0036
     28 C         150.0296  142.8013  153.8000 C.ar    1  UNL1        0.0297
     29 C         149.4529  141.7570  154.7092 C.ar    1  UNL1        0.1414
     30 F         150.3496  140.7322  155.3382 F       1  UNL1       -0.2041
     31 C         147.9795  141.7374  154.9895 C.ar    1  UNL1        0.0443
     32 C         141.0832  139.8518  166.6092 C.ar    1  UNL1        0.0416
     33 C         139.6475  139.4298  166.7119 C.ar    1  UNL1        0.1217
     34 N         139.2091  139.6195  168.1338 N.ar    1  UNL1       -0.1676
     35 N         140.3740  140.1588  168.9099 N.ar    1  UNL1       -0.2468
     36 C         141.5322  140.3023  167.9676 C.ar    1  UNL1        0.0968
     37 C         140.3797  140.4954  170.3716 C.3     1  UNL1        0.1591
     38 C         141.5601  141.1970  170.9752 C.3     1  UNL1        0.1635
     39 O         142.2249  140.6324  172.1954 O.3     1  UNL1       -0.3799
     40 H         141.6113  140.6723  172.9456 H       1  UNL1        0.2105
@<TRIPOS>BOND
     1     1     2    1
     2     2     3   ar
     3     3     4   ar
     4     4     5   ar
     5     5    32    1
     6    32    33   ar
     7    33    34   ar
     8    34    35   ar
     9    35    37    1
    10    37    38    1
    11    38    39    1
    12    35    36   ar
    13     5     6   ar
    14     6     7   ar
    15     7     8   ar
    16     8     9   ar
    17     9    13    1
    18    13    14   ar
    19    14    15   ar
    20    15    16   ar
    21    16    19    1
    22    19    20   am
    23    20    21    2
    24    20    22   am
    25    22    25    1
    26    25    26   ar
    27    26    27   ar
    28    27    28   ar
    29    28    29   ar
    30    29    30    1
    31    29    31   ar
    32    16    17   ar
    33    17    18   ar
    34     9    10   ar
    35    10     2   ar
    36    36    32   ar
    37    10     6   ar
    38    18    13   ar
    39    31    25   ar
    40     1    11    1
    41     1    12    1
    42    39    40    1
    43    19    23    1
    44    22    24    1
@<TRIPOS>MOLECULE
*****
 40 44 0 0 0
SMALL
GASTEIGER

@<TRIPOS>ATOM
      1 N         145.1058  143.1372  162.0072 N.pl3   1  UNL1       -0.3426
      2 C         144.3151  142.8253  163.2431 C.ar    1  UNL1        0.1258
      3 N         144.8031  143.2904  164.5830 N.ar    1  UNL1       -0.2296
      4 C         144.0125  142.9785  165.8189 C.ar    1  UNL1        0.1008
      5 C         142.7336  142.2013  165.7149 C.ar    1  UNL1        0.0283
      6 C         142.2456  141.7362  164.3749 C.ar    1  UNL1        0.0337
      7 S         141.0311  140.9577  163.9640 S.2     1  UNL1       -0.0863
      8 C         141.0712  140.7885  162.4741 C.ar    1  UNL1        0.0355
      9 C         142.3105  141.4624  161.9643 C.ar    1  UNL1        0.0096
     10 C         143.0363  142.0481  163.1390 C.ar    1  UNL1        0.0377
     11 H         145.9451  143.6473  162.0755 H       1  UNL1        0.1437
     12 H         144.7855  142.8319  161.1277 H       1  UNL1        0.1437
     13 C         142.7473  141.5375  160.5312 C.ar    1  UNL1        0.0007
     14 C         142.4578  142.7670  159.7224 C.ar    1  UNL1        0.0013
     15 C         142.8946  142.8421  158.2893 C.ar    1  UNL1        0.0147
     16 C         143.6208  141.6876  157.6651 C.ar    1  UNL1        0.0516
     17 C         143.9102  140.4580  158.4741 C.ar    1  UNL1        0.0147
     18 C         143.4735  140.3829  159.9070 C.ar    1  UNL1        0.0013
     19 N         144.0575  141.7627  156.2321 N.am    1  UNL1       -0.2681
     20 C         145.4868  142.0728  155.8989 C.2     1  UNL1        0.3082
     21 O         146.4793  142.3078  156.9988 O.2     1  UNL1       -0.2522
     22 N         145.9235  142.1478  154.4659 N.am    1  UNL1       -0.2680
     23 H         143.4061  141.6084  155.5102 H       1  UNL1        0.1564
     24 H         145.2721  141.9935  153.7440 H       1  UNL1        0.1564
     25 C         147.3529  142.4579  154.1327 C.ar    1  UNL1        0.0538
     26 C         147.6833  143.6482  153.2818 C.ar    1  UNL1        0.0149
     27 C         149.1126  143.9583  152.9486 C.ar    1  UNL1        0.0036
     28 C         150.2114  143.0781  153.4663 C.ar    1  UNL1        0.0297
     29 C         149.8809  141.8878  154.3172 C.ar    1  UNL1        0.1414
     30 F         150.9797  141.0077  154.8348 F       1  UNL1       -0.2041
     31 C         148.4516  141.5777  154.6504 C.ar    1  UNL1        0.0443
     32 C         141.9429  141.8894  166.9508 C.ar    1  UNL1        0.0416
     33 C         140.6612  142.5480  167.3672 C.ar    1  UNL1        0.1217
     34 N         140.2213  141.9297  168.6611 N.ar    1  UNL1       -0.1676
     35 N         141.2313  140.8890  169.0444 N.ar    1  UNL1       -0.2468
     36 C         142.2953  140.8641  167.9874 C.ar    1  UNL1        0.0968
     37 C         141.1853  140.0248  170.2697 C.3     1  UNL1        0.1591
     38 C         139.8859  139.8096  170.9874 C.3     1  UNL1        0.1635
     39 O         138.5875  140.0587  170.2789 O.3     1  UNL1       -0.3799
     40 H         138.5061  141.0037  170.0758 H       1  UNL1        0.2105
@<TRIPOS>BOND
     1     1     2    1
     2     2     3   ar
     3     3     4   ar
     4     4     5   ar
     5     5    32    1
     6    32    33   ar
     7    33    34   ar
     8    34    35   ar
     9    35    37    1
    10    37    38    1
    11    38    39    1
    12    35    36   ar
    13     5     6   ar
    14     6     7   ar
    15     7     8   ar
    16     8     9   ar
    17     9    13    1
    18    13    14   ar
    19    14    15   ar
    20    15    16   ar
    21    16    19    1
    22    19    20   am
    23    20    21    2
    24    20    22   am
    25    22    25    1
    26    25    26   ar
    27    26    27   ar
    28    27    28   ar
    29    28    29   ar
    30    29    30    1
    31    29    31   ar
    32    16    17   ar
    33    17    18   ar
    34     9    10   ar
    35    10     2   ar
    36    36    32   ar
    37    10     6   ar
    38    18    13   ar
    39    31    25   ar
    40     1    11    1
    41     1    12    1
    42    39    40    1
    43    19    23    1
    44    22    24    1
