@<TRIPOS>MOLECULE
*****
 21 22 0 0 0
SMALL
GASTEIGER

@<TRIPOS>ATOM
      1 C         141.6340  142.7581  164.1638 C.ar    1  UNL1        0.1434
      2 C         142.9623  142.0684  164.2653 C.ar    1  UNL1        0.0486
      3 C         144.2150  142.7916  163.8681 C.ar    1  UNL1        0.0607
      4 CL        145.5432  142.1020  163.9696 Cl      1  UNL1       -0.0821
      5 C         144.1395  144.2043  163.3695 C.ar    1  UNL1        0.0113
      6 C         142.8113  144.8938  163.2681 C.ar    1  UNL1        0.0010
      7 C         141.5585  144.1707  163.6652 C.ar    1  UNL1        0.0282
      8 O         140.3813  142.0350  164.5610 O.3     1  UNL1       -0.4538
      9 C         140.4919  142.0182  168.5281 C.ar    1  UNL1       -0.0086
     10 C         140.6867  142.4556  167.1066 C.ar    1  UNL1        0.0341
     11 C         140.1865  141.5975  165.9826 C.ar    1  UNL1        0.1450
     12 C         139.4915  140.3019  166.2800 C.ar    1  UNL1        0.0383
     13 C         139.2967  139.8645  167.7015 C.ar    1  UNL1        0.0142
     14 C         139.7969  140.7226  168.8255 C.ar    1  UNL1        0.0539
     15 CL        139.6021  140.2852  170.2471 Cl      1  UNL1       -0.0826
     16 C         140.3168  144.1803  169.9579 C.3     1  UNL1        0.0051
     17 C         140.9921  142.8763  169.6521 C.3     1  UNL1        0.0273
     18 C         140.2303  144.8603  163.5638 C.3     1  UNL1        0.0987
     19 N         139.3871  145.0481  164.7900 N.3     1  UNL1       -0.2925
     20 C         138.0133  144.4493  164.8544 C.3     1  UNL1        0.0861
     21 H         139.2764  146.0537  164.9202 H       1  UNL1        0.1236
@<TRIPOS>BOND
     1    16    17    1
     2    17     9    1
     3     9    10   ar
     4    10    11   ar
     5    11     8    1
     6     8     1    1
     7     1     2   ar
     8     2     3   ar
     9     3     4    1
    10     3     5   ar
    11     5     6   ar
    12     6     7   ar
    13     7    18    1
    14    18    19    1
    15    19    20    1
    16    11    12   ar
    17    12    13   ar
    18    13    14   ar
    19    14    15    1
    20    14     9   ar
    21     7     1   ar
    22    19    21    1
@<TRIPOS>MOLECULE
*****
 21 22 0 0 0
SMALL
GASTEIGER

@<TRIPOS>ATOM
      1 C         138.2786  140.0665  164.1041 C.ar    1  UNL1        0.1434
      2 C         138.1346  141.5228  164.4338 C.ar    1  UNL1        0.0486
      3 C         137.8692  142.5163  163.3419 C.ar    1  UNL1        0.0607
      4 CL        137.7252  143.9725  163.6716 Cl      1  UNL1       -0.0821
      5 C         137.7478  142.0537  161.9201 C.ar    1  UNL1        0.0113
      6 C         137.8918  140.5975  161.5904 C.ar    1  UNL1        0.0010
      7 C         138.1572  139.6039  162.6824 C.ar    1  UNL1        0.0282
      8 O         138.5439  139.0729  165.1960 O.3     1  UNL1       -0.4538
      9 C         140.2056  140.1101  168.6476 C.ar    1  UNL1       -0.0086
     10 C         139.1667  139.8195  167.6053 C.ar    1  UNL1        0.0341
     11 C         139.5829  139.3636  166.2383 C.ar    1  UNL1        0.1450
     12 C         141.0379  139.1983  165.9134 C.ar    1  UNL1        0.0383
     13 C         142.0767  139.4889  166.9556 C.ar    1  UNL1        0.0142
     14 C         141.6606  139.9449  168.3227 C.ar    1  UNL1        0.0539
     15 CL        142.6995  140.2355  169.3649 Cl      1  UNL1       -0.0826
     16 C         139.6767  142.0314  170.3146 C.3     1  UNL1        0.0051
     17 C         139.7894  140.5661  170.0147 C.3     1  UNL1        0.0273
     18 C         138.3012  138.1477  162.3526 C.3     1  UNL1        0.0987
     19 N         139.6005  137.6253  161.8152 N.3     1  UNL1       -0.2925
     20 C         140.7737  137.4461  162.7325 C.3     1  UNL1        0.0861
     21 H         139.8960  138.2695  161.0816 H       1  UNL1        0.1236
@<TRIPOS>BOND
     1    16    17    1
     2    17     9    1
     3     9    10   ar
     4    10    11   ar
     5    11     8    1
     6     8     1    1
     7     1     2   ar
     8     2     3   ar
     9     3     4    1
    10     3     5   ar
    11     5     6   ar
    12     6     7   ar
    13     7    18    1
    14    18    19    1
    15    19    20    1
    16    11    12   ar
    17    12    13   ar
    18    13    14   ar
    19    14    15    1
    20    14     9   ar
    21     7     1   ar
    22    19    21    1
@<TRIPOS>MOLECULE
*****
 21 22 0 0 0
SMALL
GASTEIGER

@<TRIPOS>ATOM
      1 C         140.5592  139.8869  166.7304 C.ar    1  UNL1        0.1434
      2 C         140.3435  139.1324  165.4520 C.ar    1  UNL1        0.0486
      3 C         139.0591  138.3912  165.2261 C.ar    1  UNL1        0.0607
      4 CL        138.8434  137.6367  163.9478 Cl      1  UNL1       -0.0821
      5 C         137.9904  138.4046  166.2787 C.ar    1  UNL1        0.0113
      6 C         138.2061  139.1591  167.5570 C.ar    1  UNL1        0.0010
      7 C         139.4905  139.9003  167.7828 C.ar    1  UNL1        0.0282
      8 O         141.8435  140.6281  166.9562 O.3     1  UNL1       -0.4538
      9 C         141.5350  143.8388  164.6440 C.ar    1  UNL1       -0.0086
     10 C         141.1597  142.6978  165.5424 C.ar    1  UNL1        0.0341
     11 C         142.2189  141.7692  166.0578 C.ar    1  UNL1        0.1450
     12 C         143.6535  141.9816  165.6748 C.ar    1  UNL1        0.0383
     13 C         144.0289  143.1226  164.7764 C.ar    1  UNL1        0.0142
     14 C         142.9696  144.0513  164.2610 C.ar    1  UNL1        0.0539
     15 CL        143.3450  145.1923  163.3626 Cl      1  UNL1       -0.0826
     16 C         139.1064  144.7568  164.7408 C.3     1  UNL1        0.0051
     17 C         140.4757  144.7674  164.1286 C.3     1  UNL1        0.0273
     18 C         139.7062  140.6548  169.0612 C.3     1  UNL1        0.0987
     19 N         140.2143  142.0656  169.0228 N.3     1  UNL1       -0.2925
     20 C         140.0924  142.9398  170.2356 C.3     1  UNL1        0.0861
     21 H         139.7160  142.5376  168.2683 H       1  UNL1        0.1236
@<TRIPOS>BOND
     1    16    17    1
     2    17     9    1
     3     9    10   ar
     4    10    11   ar
     5    11     8    1
     6     8     1    1
     7     1     2   ar
     8     2     3   ar
     9     3     4    1
    10     3     5   ar
    11     5     6   ar
    12     6     7   ar
    13     7    18    1
    14    18    19    1
    15    19    20    1
    16    11    12   ar
    17    12    13   ar
    18    13    14   ar
    19    14    15    1
    20    14     9   ar
    21     7     1   ar
    22    19    21    1
@<TRIPOS>MOLECULE
*****
 21 22 0 0 0
SMALL
GASTEIGER

@<TRIPOS>ATOM
      1 C         143.3873  142.0925  164.7925 C.ar    1  UNL1        0.1434
      2 C         142.4189  143.2368  164.7403 C.ar    1  UNL1        0.0486
      3 C         142.5905  144.3185  163.7154 C.ar    1  UNL1        0.0607
      4 CL        141.6221  145.4628  163.6633 Cl      1  UNL1       -0.0821
      5 C         143.7307  144.2559  162.7427 C.ar    1  UNL1        0.0113
      6 C         144.6991  143.1116  162.7948 C.ar    1  UNL1        0.0010
      7 C         144.5274  142.0299  163.8197 C.ar    1  UNL1        0.0282
      8 O         143.2157  141.0108  165.8174 O.3     1  UNL1       -0.4538
      9 C         139.9561  138.7751  165.4602 C.ar    1  UNL1       -0.0086
     10 C         141.3164  139.3500  165.1971 C.ar    1  UNL1        0.0341
     11 C         141.8553  140.4359  166.0805 C.ar    1  UNL1        0.1450
     12 C         141.0340  140.9470  167.2268 C.ar    1  UNL1        0.0383
     13 C         139.6738  140.3722  167.4899 C.ar    1  UNL1        0.0142
     14 C         139.1349  139.2862  166.6066 C.ar    1  UNL1        0.0539
     15 CL        137.7745  138.7114  166.8697 Cl      1  UNL1       -0.0826
     16 C         138.8585  138.0286  163.2269 C.3     1  UNL1        0.0051
     17 C         139.4172  137.6892  164.5769 C.3     1  UNL1        0.0273
     18 C         145.4959  140.8856  163.8718 C.3     1  UNL1        0.0987
     19 N         144.9986  139.4759  163.7473 N.3     1  UNL1       -0.2925
     20 C         144.0214  139.1180  162.6671 C.3     1  UNL1        0.0861
     21 H         144.5551  139.2406  164.6353 H       1  UNL1        0.1236
@<TRIPOS>BOND
     1    16    17    1
     2    17     9    1
     3     9    10   ar
     4    10    11   ar
     5    11     8    1
     6     8     1    1
     7     1     2   ar
     8     2     3   ar
     9     3     4    1
    10     3     5   ar
    11     5     6   ar
    12     6     7   ar
    13     7    18    1
    14    18    19    1
    15    19    20    1
    16    11    12   ar
    17    12    13   ar
    18    13    14   ar
    19    14    15    1
    20    14     9   ar
    21     7     1   ar
    22    19    21    1
@<TRIPOS>MOLECULE
*****
 21 22 0 0 0
SMALL
GASTEIGER

@<TRIPOS>ATOM
      1 C         140.5371  139.5921  166.8990 C.ar    1  UNL1        0.1434
      2 C         140.4239  138.9234  165.5610 C.ar    1  UNL1        0.0486
      3 C         139.1161  138.3309  165.1269 C.ar    1  UNL1        0.0607
      4 CL        139.0028  137.6622  163.7890 Cl      1  UNL1       -0.0821
      5 C         137.9214  138.4070  166.0309 C.ar    1  UNL1        0.0113
      6 C         138.0346  139.0757  167.3688 C.ar    1  UNL1        0.0010
      7 C         139.3425  139.6682  167.8028 C.ar    1  UNL1        0.0282
      8 O         141.8449  140.1847  167.3330 O.3     1  UNL1       -0.4538
      9 C         144.1307  142.5080  165.0685 C.ar    1  UNL1       -0.0086
     10 C         143.1257  142.0759  166.0948 C.ar    1  UNL1        0.0341
     11 C         142.8500  140.6168  166.3066 C.ar    1  UNL1        0.1450
     12 C         143.5792  139.5897  165.4922 C.ar    1  UNL1        0.0383
     13 C         144.5842  140.0218  164.4659 C.ar    1  UNL1        0.0142
     14 C         144.8599  141.4810  164.2541 C.ar    1  UNL1        0.0539
     15 CL        145.8649  141.9131  163.2277 Cl      1  UNL1       -0.0826
     16 C         143.5973  144.7468  163.8630 C.3     1  UNL1        0.0051
     17 C         144.4064  143.9672  164.8567 C.3     1  UNL1        0.0273
     18 C         139.4556  140.3369  169.1408 C.3     1  UNL1        0.0987
     19 N         140.4297  139.8200  170.1576 N.3     1  UNL1       -0.2925
     20 C         141.0896  140.7685  171.1140 C.3     1  UNL1        0.0861
     21 H         141.1765  139.3559  169.6406 H       1  UNL1        0.1236
@<TRIPOS>BOND
     1    16    17    1
     2    17     9    1
     3     9    10   ar
     4    10    11   ar
     5    11     8    1
     6     8     1    1
     7     1     2   ar
     8     2     3   ar
     9     3     4    1
    10     3     5   ar
    11     5     6   ar
    12     6     7   ar
    13     7    18    1
    14    18    19    1
    15    19    20    1
    16    11    12   ar
    17    12    13   ar
    18    13    14   ar
    19    14    15    1
    20    14     9   ar
    21     7     1   ar
    22    19    21    1
@<TRIPOS>MOLECULE
*****
 21 22 0 0 0
SMALL
GASTEIGER

@<TRIPOS>ATOM
      1 C         138.4725  141.4939  164.0463 C.ar    1  UNL1        0.1434
      2 C         138.5374  142.5914  165.0667 C.ar    1  UNL1        0.0486
      3 C         138.3702  144.0205  164.6427 C.ar    1  UNL1        0.0607
      4 CL        138.4351  145.1181  165.6631 Cl      1  UNL1       -0.0821
      5 C         138.1381  144.3520  163.1983 C.ar    1  UNL1        0.0113
      6 C         138.0733  143.2545  162.1780 C.ar    1  UNL1        0.0010
      7 C         138.2404  141.8254  162.6019 C.ar    1  UNL1        0.0282
      8 O         138.6397  140.0648  164.4703 O.3     1  UNL1       -0.4538
      9 C         141.7937  139.4124  166.7890 C.ar    1  UNL1       -0.0086
     10 C         140.4563  139.9042  166.3208 C.ar    1  UNL1        0.0341
     11 C         139.9772  139.5729  164.9385 C.ar    1  UNL1        0.1450
     12 C         140.8356  138.7499  164.0243 C.ar    1  UNL1        0.0383
     13 C         142.1731  138.2581  164.4925 C.ar    1  UNL1        0.0142
     14 C         142.6522  138.5893  165.8748 C.ar    1  UNL1        0.0539
     15 CL        143.9897  138.0975  166.3430 Cl      1  UNL1       -0.0826
     16 C         141.2891  139.8635  169.2973 C.3     1  UNL1        0.0051
     17 C         142.2728  139.7436  168.1713 C.3     1  UNL1        0.0273
     18 C         138.1756  140.7279  161.5815 C.3     1  UNL1        0.0987
     19 N         137.3237  139.5192  161.8332 N.3     1  UNL1       -0.2925
     20 C         137.9176  138.1464  161.7206 C.3     1  UNL1        0.0861
     21 H         136.5502  139.5607  161.1695 H       1  UNL1        0.1236
@<TRIPOS>BOND
     1    16    17    1
     2    17     9    1
     3     9    10   ar
     4    10    11   ar
     5    11     8    1
     6     8     1    1
     7     1     2   ar
     8     2     3   ar
     9     3     4    1
    10     3     5   ar
    11     5     6   ar
    12     6     7   ar
    13     7    18    1
    14    18    19    1
    15    19    20    1
    16    11    12   ar
    17    12    13   ar
    18    13    14   ar
    19    14    15    1
    20    14     9   ar
    21     7     1   ar
    22    19    21    1
@<TRIPOS>MOLECULE
*****
 21 22 0 0 0
SMALL
GASTEIGER

@<TRIPOS>ATOM
      1 C         138.1236  140.1863  164.0537 C.ar    1  UNL1        0.1434
      2 C         137.9369  141.6666  164.2085 C.ar    1  UNL1        0.0486
      3 C         137.8353  142.5408  162.9938 C.ar    1  UNL1        0.0607
      4 CL        137.6486  144.0211  163.1485 Cl      1  UNL1       -0.0821
      5 C         137.9204  141.9347  161.6243 C.ar    1  UNL1        0.0113
      6 C         138.1071  140.4545  161.4695 C.ar    1  UNL1        0.0010
      7 C         138.2087  139.5803  162.6842 C.ar    1  UNL1        0.0282
      8 O         138.2252  139.3121  165.2684 O.3     1  UNL1       -0.4538
      9 C         141.9289  139.3140  166.6940 C.ar    1  UNL1       -0.0086
     10 C         140.7733  139.1560  165.7508 C.ar    1  UNL1        0.0341
     11 C         139.3808  139.4701  166.2116 C.ar    1  UNL1        0.1450
     12 C         139.1439  139.9422  167.6155 C.ar    1  UNL1        0.0383
     13 C         140.2996  140.1002  168.5586 C.ar    1  UNL1        0.0142
     14 C         141.6920  139.7861  168.0979 C.ar    1  UNL1        0.0539
     15 CL        142.8477  139.9441  169.0411 Cl      1  UNL1       -0.0826
     16 C         143.6524  139.0309  164.7705 C.3     1  UNL1        0.0051
     17 C         143.3214  138.9999  166.2332 C.3     1  UNL1        0.0273
     18 C         138.3954  138.1000  162.5294 C.3     1  UNL1        0.0987
     19 N         139.5960  137.5671  161.8051 N.3     1  UNL1       -0.2925
     20 C         140.9680  138.0507  162.1706 C.3     1  UNL1        0.0861
     21 H         139.4622  137.7803  160.8167 H       1  UNL1        0.1236
@<TRIPOS>BOND
     1    16    17    1
     2    17     9    1
     3     9    10   ar
     4    10    11   ar
     5    11     8    1
     6     8     1    1
     7     1     2   ar
     8     2     3   ar
     9     3     4    1
    10     3     5   ar
    11     5     6   ar
    12     6     7   ar
    13     7    18    1
    14    18    19    1
    15    19    20    1
    16    11    12   ar
    17    12    13   ar
    18    13    14   ar
    19    14    15    1
    20    14     9   ar
    21     7     1   ar
    22    19    21    1
@<TRIPOS>MOLECULE
*****
 21 22 0 0 0
SMALL
GASTEIGER

@<TRIPOS>ATOM
      1 C         140.3285  142.9182  163.9966 C.ar    1  UNL1        0.1434
      2 C         141.7606  143.3611  164.0522 C.ar    1  UNL1        0.0486
      3 C         142.1370  144.7410  163.6006 C.ar    1  UNL1        0.0607
      4 CL        143.5690  145.1839  163.6562 Cl      1  UNL1       -0.0821
      5 C         141.0812  145.6782  163.0933 C.ar    1  UNL1        0.0113
      6 C         139.6492  145.2353  163.0377 C.ar    1  UNL1        0.0010
      7 C         139.2728  143.8553  163.4893 C.ar    1  UNL1        0.0282
      8 O         139.9521  141.5382  164.4483 O.3     1  UNL1       -0.4538
      9 C         140.4310  141.8232  168.3776 C.ar    1  UNL1       -0.0086
     10 C         140.5161  142.1358  166.9130 C.ar    1  UNL1        0.0341
     11 C         139.8670  141.2256  165.9129 C.ar    1  UNL1        0.1450
     12 C         139.1329  140.0028  166.3774 C.ar    1  UNL1        0.0383
     13 C         139.0478  139.6902  167.8419 C.ar    1  UNL1        0.0142
     14 C         139.6969  140.6004  168.8420 C.ar    1  UNL1        0.0539
     15 CL        139.6118  140.2877  170.3067 Cl      1  UNL1       -0.0826
     16 C         140.3807  143.9856  169.8168 C.3     1  UNL1        0.0051
     17 C         141.0801  142.7334  169.3777 C.3     1  UNL1        0.0273
     18 C         137.8407  143.4125  163.4337 C.3     1  UNL1        0.0987
     19 N         137.4513  142.2381  162.5858 N.3     1  UNL1       -0.2925
     20 C         138.1049  142.0261  161.2524 C.3     1  UNL1        0.0861
     21 H         136.4493  142.3191  162.4129 H       1  UNL1        0.1236
@<TRIPOS>BOND
     1    16    17    1
     2    17     9    1
     3     9    10   ar
     4    10    11   ar
     5    11     8    1
     6     8     1    1
     7     1     2   ar
     8     2     3   ar
     9     3     4    1
    10     3     5   ar
    11     5     6   ar
    12     6     7   ar
    13     7    18    1
    14    18    19    1
    15    19    20    1
    16    11    12   ar
    17    12    13   ar
    18    13    14   ar
    19    14    15    1
    20    14     9   ar
    21     7     1   ar
    22    19    21    1
@<TRIPOS>MOLECULE
*****
 21 22 0 0 0
SMALL
GASTEIGER

@<TRIPOS>ATOM
      1 C         140.7543  139.5879  166.2244 C.ar    1  UNL1        0.1434
      2 C         139.4253  139.5013  166.9146 C.ar    1  UNL1        0.0486
      3 C         138.4595  138.4136  166.5486 C.ar    1  UNL1        0.0607
      4 CL        137.1305  138.3270  167.2387 Cl      1  UNL1       -0.0821
      5 C         138.8227  137.4123  165.4923 C.ar    1  UNL1        0.0113
      6 C         140.1516  137.4989  164.8021 C.ar    1  UNL1        0.0010
      7 C         141.1174  138.5867  165.1682 C.ar    1  UNL1        0.0282
      8 O         141.7201  140.6756  166.5905 O.3     1  UNL1       -0.4538
      9 C         140.5988  144.0094  164.7523 C.ar    1  UNL1       -0.0086
     10 C         140.5399  142.7526  165.5690 C.ar    1  UNL1        0.0341
     11 C         141.7790  141.9324  165.7737 C.ar    1  UNL1        0.1450
     12 C         143.0770  142.3690  165.1617 C.ar    1  UNL1        0.0383
     13 C         143.1359  143.6257  164.3450 C.ar    1  UNL1        0.0142
     14 C         141.8968  144.4459  164.1403 C.ar    1  UNL1        0.0539
     15 CL        141.9557  145.7027  163.3235 Cl      1  UNL1       -0.0826
     16 C         138.3506  144.9521  165.6507 C.3     1  UNL1        0.0051
     17 C         139.3597  144.8296  164.5476 C.3     1  UNL1        0.0273
     18 C         142.4465  138.6732  164.4780 C.3     1  UNL1        0.0987
     19 N         143.6987  138.8592  165.2825 N.3     1  UNL1       -0.2925
     20 C         143.9633  137.9836  166.4713 C.3     1  UNL1        0.0861
     21 H         143.6908  139.8212  165.6213 H       1  UNL1        0.1236
@<TRIPOS>BOND
     1    16    17    1
     2    17     9    1
     3     9    10   ar
     4    10    11   ar
     5    11     8    1
     6     8     1    1
     7     1     2   ar
     8     2     3   ar
     9     3     4    1
    10     3     5   ar
    11     5     6   ar
    12     6     7   ar
    13     7    18    1
    14    18    19    1
    15    19    20    1
    16    11    12   ar
    17    12    13   ar
    18    13    14   ar
    19    14    15    1
    20    14     9   ar
    21     7     1   ar
    22    19    21    1
