@<TRIPOS>MOLECULE
*****
 32 35 0 0 0
SMALL
GASTEIGER

@<TRIPOS>ATOM
      1 C         141.5447  139.9607  168.0267 C.3     1  UNL1        0.0679
      2 C         140.5369  139.9875  169.1374 C.3     1  UNL1        0.0177
      3 C         141.9209  139.4687  169.3929 C.3     1  UNL1        0.0845
      4 C         140.7188  140.5306  166.9118 C.ar    1  UNL1       -0.0164
      5 C         139.4182  139.8847  166.5359 C.ar    1  UNL1       -0.0017
      6 C         138.5923  140.4547  165.4210 C.ar    1  UNL1        0.0316
      7 C         139.0670  141.6706  164.6820 C.ar    1  UNL1        0.1674
      8 F         138.2411  142.2406  163.5671 F       1  UNL1       -0.2018
      9 C         140.3676  142.3165  165.0578 C.ar    1  UNL1        0.1671
     10 F         140.8423  143.5324  164.3188 F       1  UNL1       -0.2018
     11 C         141.1935  141.7465  166.1728 C.ar    1  UNL1        0.0278
     12 C         142.9372  138.8852  170.3292 C.2     1  UNL1        0.2271
     13 O         143.6930  139.7788  171.2675 O.2     1  UNL1       -0.2747
     14 N         143.1979  137.4080  170.3272 N.am    1  UNL1       -0.2693
     15 H         142.7019  136.8214  169.7113 H       1  UNL1        0.1563
     16 C         144.2141  136.8244  171.2634 C.ar    1  UNL1        0.1343
     17 C         144.1357  135.3766  171.6477 C.ar    1  UNL1        0.0368
     18 C         145.1520  134.7931  172.5840 C.ar    1  UNL1        0.0341
     19 C         146.2468  135.6573  173.1359 C.ar    1  UNL1        0.1593
     20 F         147.2631  135.0737  174.0721 F       1  UNL1       -0.2025
     21 C         146.3252  137.1050  172.7515 C.ar    1  UNL1        0.1298
     22 N         145.3089  137.6886  171.8153 N.ar    1  UNL1       -0.2267
     23 C         142.8393  139.7358  167.3032 C.3     1  UNL1        0.2098
     24 O         143.0206  138.5140  166.4523 O.3     1  UNL1       -0.4723
     25 C         143.9286  139.0777  160.5482 C.3     1  UNL1        0.0736
     26 C         143.7016  138.9368  162.0242 C.ar    1  UNL1        0.1394
     27 N         144.6465  139.5831  162.9935 N.ar    1  UNL1       -0.2260
     28 C         144.4195  139.4421  164.4695 C.ar    1  UNL1        0.1382
     29 C         143.2476  138.6549  164.9763 C.ar    1  UNL1        0.1711
     30 C         142.3027  138.0087  164.0070 C.ar    1  UNL1        0.0960
     31 C         141.1307  137.2214  164.5138 C.3     1  UNL1        0.0555
     32 N         142.5297  138.1496  162.5310 N.ar    1  UNL1       -0.2319
@<TRIPOS>BOND
     1    25    26    1
     2    26    27   ar
     3    27    28   ar
     4    28    29   ar
     5    29    24    1
     6    24    23    1
     7     1    23    1
     8     1     4    1
     9     4     5   ar
    10     5     6   ar
    11     6     7   ar
    12     7     8    1
    13     7     9   ar
    14     9    10    1
    15     9    11   ar
    16     1     2    1
    17     2     3    1
    18     3    12    1
    19    12    13    2
    20    12    14   am
    21    14    16    1
    22    16    17   ar
    23    17    18   ar
    24    18    19   ar
    25    19    20    1
    26    19    21   ar
    27    21    22   ar
    28    29    30   ar
    29    30    31    1
    30    30    32   ar
    31    32    26   ar
    32     3     1    1
    33    22    16   ar
    34    11     4   ar
    35    14    15    1
@<TRIPOS>MOLECULE
*****
 32 35 0 0 0
SMALL
GASTEIGER

@<TRIPOS>ATOM
      1 C         141.0877  142.8126  165.7573 C.3     1  UNL1        0.0679
      2 C         142.4700  142.3083  165.4655 C.3     1  UNL1        0.0177
      3 C         141.7712  143.1950  164.4780 C.3     1  UNL1        0.0845
      4 C         140.8565  142.1785  167.0968 C.ar    1  UNL1       -0.0164
      5 C         141.0997  140.7101  167.2836 C.ar    1  UNL1       -0.0017
      6 C         140.8685  140.0761  168.6232 C.ar    1  UNL1        0.0316
      7 C         140.3940  140.9103  169.7759 C.ar    1  UNL1        0.1674
      8 F         140.1627  140.2762  171.1155 F       1  UNL1       -0.2018
      9 C         140.1507  142.3786  169.5892 C.ar    1  UNL1        0.1671
     10 F         139.6762  143.2128  170.7419 F       1  UNL1       -0.2018
     11 C         140.3819  143.0127  168.2496 C.ar    1  UNL1        0.0278
     12 C         141.7623  143.9278  163.1691 C.2     1  UNL1        0.2271
     13 O         142.0633  145.3967  163.1298 O.2     1  UNL1       -0.2747
     14 N         141.4523  143.1915  161.8995 N.am    1  UNL1       -0.2693
     15 H         141.2547  142.2274  161.9252 H       1  UNL1        0.1563
     16 C         141.4434  143.9242  160.5907 C.ar    1  UNL1        0.1343
     17 C         140.2892  144.8150  160.2376 C.ar    1  UNL1        0.0368
     18 C         140.2804  145.5476  158.9288 C.ar    1  UNL1        0.0341
     19 C         141.4256  145.3897  157.9730 C.ar    1  UNL1        0.1593
     20 F         141.4166  146.1224  156.6642 F       1  UNL1       -0.2025
     21 C         142.5796  144.4990  158.3261 C.ar    1  UNL1        0.1298
     22 N         142.5885  143.7663  159.6349 N.ar    1  UNL1       -0.2267
     23 C         139.7858  143.5370  165.5837 C.3     1  UNL1        0.2098
     24 O         138.5146  142.7619  165.4015 O.3     1  UNL1       -0.4723
     25 C         137.4502  139.9189  160.2261 C.3     1  UNL1        0.0736
     26 C         137.7163  140.6296  161.5200 C.ar    1  UNL1        0.1394
     27 N         137.8275  142.1253  161.5450 N.ar    1  UNL1       -0.2260
     28 C         138.0936  142.8360  162.8389 C.ar    1  UNL1        0.1382
     29 C         138.2485  142.0511  164.1076 C.ar    1  UNL1        0.1711
     30 C         138.1374  140.5555  164.0826 C.ar    1  UNL1        0.0960
     31 C         138.2923  139.7705  165.3515 C.3     1  UNL1        0.0555
     32 N         137.8713  139.8447  162.7888 N.ar    1  UNL1       -0.2319
@<TRIPOS>BOND
     1    25    26    1
     2    26    27   ar
     3    27    28   ar
     4    28    29   ar
     5    29    24    1
     6    24    23    1
     7     1    23    1
     8     1     4    1
     9     4     5   ar
    10     5     6   ar
    11     6     7   ar
    12     7     8    1
    13     7     9   ar
    14     9    10    1
    15     9    11   ar
    16     1     2    1
    17     2     3    1
    18     3    12    1
    19    12    13    2
    20    12    14   am
    21    14    16    1
    22    16    17   ar
    23    17    18   ar
    24    18    19   ar
    25    19    20    1
    26    19    21   ar
    27    21    22   ar
    28    29    30   ar
    29    30    31    1
    30    30    32   ar
    31    32    26   ar
    32     3     1    1
    33    22    16   ar
    34    11     4   ar
    35    14    15    1
@<TRIPOS>MOLECULE
*****
 32 35 0 0 0
SMALL
GASTEIGER

@<TRIPOS>ATOM
      1 C         143.0187  142.1669  165.2225 C.3     1  UNL1        0.0679
      2 C         144.2829  141.5460  164.7064 C.3     1  UNL1        0.0177
      3 C         143.5261  142.5232  163.8566 C.3     1  UNL1        0.0845
      4 C         142.9410  141.5165  166.5719 C.ar    1  UNL1       -0.0164
      5 C         142.7564  140.0317  166.6792 C.ar    1  UNL1       -0.0017
      6 C         142.6786  139.3812  168.0286 C.ar    1  UNL1        0.0316
      7 C         142.7855  140.2155  169.2706 C.ar    1  UNL1        0.1674
      8 F         142.7078  139.5650  170.6199 F       1  UNL1       -0.2018
      9 C         142.9701  141.7002  169.1632 C.ar    1  UNL1        0.1671
     10 F         143.0770  142.5344  170.4052 F       1  UNL1       -0.2018
     11 C         143.0478  142.3507  167.8138 C.ar    1  UNL1        0.0278
     12 C         143.3822  143.2933  162.5774 C.2     1  UNL1        0.2271
     13 O         143.9720  144.6673  162.4585 O.2     1  UNL1       -0.2747
     14 N         142.6483  142.6892  161.4169 N.am    1  UNL1       -0.2693
     15 H         142.2611  141.7874  161.4949 H       1  UNL1        0.1563
     16 C         142.5042  143.4592  160.1377 C.ar    1  UNL1        0.1343
     17 C         143.1923  142.9815  158.8933 C.ar    1  UNL1        0.0368
     18 C         143.0482  143.7515  157.6141 C.ar    1  UNL1        0.0341
     19 C         142.2162  144.9991  157.5793 C.ar    1  UNL1        0.1593
     20 F         142.0722  145.7690  156.3001 F       1  UNL1       -0.2025
     21 C         141.5282  145.4767  158.8237 C.ar    1  UNL1        0.1298
     22 N         141.6722  144.7067  160.1029 N.ar    1  UNL1       -0.2267
     23 C         141.7815  143.0138  165.2699 C.3     1  UNL1        0.2098
     24 O         140.4622  142.3950  165.6251 O.3     1  UNL1       -0.4723
     25 C         137.8776  138.4837  161.8805 C.3     1  UNL1        0.0736
     26 C         138.5238  139.4615  162.8167 C.ar    1  UNL1        0.1394
     27 N         139.1588  140.7088  162.2773 N.ar    1  UNL1       -0.2260
     28 C         139.8049  141.6866  163.2135 C.ar    1  UNL1        0.1382
     29 C         139.8160  141.4171  164.6890 C.ar    1  UNL1        0.1711
     30 C         139.1810  140.1698  165.2283 C.ar    1  UNL1        0.0960
     31 C         139.1921  139.9003  166.7039 C.3     1  UNL1        0.0555
     32 N         138.5349  139.1920  164.2922 N.ar    1  UNL1       -0.2319
@<TRIPOS>BOND
     1    25    26    1
     2    26    27   ar
     3    27    28   ar
     4    28    29   ar
     5    29    24    1
     6    24    23    1
     7     1    23    1
     8     1     4    1
     9     4     5   ar
    10     5     6   ar
    11     6     7   ar
    12     7     8    1
    13     7     9   ar
    14     9    10    1
    15     9    11   ar
    16     1     2    1
    17     2     3    1
    18     3    12    1
    19    12    13    2
    20    12    14   am
    21    14    16    1
    22    16    17   ar
    23    17    18   ar
    24    18    19   ar
    25    19    20    1
    26    19    21   ar
    27    21    22   ar
    28    29    30   ar
    29    30    31    1
    30    30    32   ar
    31    32    26   ar
    32     3     1    1
    33    22    16   ar
    34    11     4   ar
    35    14    15    1
@<TRIPOS>MOLECULE
*****
 32 35 0 0 0
SMALL
GASTEIGER

@<TRIPOS>ATOM
      1 C         140.6930  141.7387  165.8682 C.3     1  UNL1        0.0679
      2 C         139.5316  140.9119  166.3344 C.3     1  UNL1        0.0177
      3 C         139.7874  141.0853  164.8667 C.3     1  UNL1        0.0845
      4 C         141.2642  142.1552  167.1912 C.ar    1  UNL1       -0.0164
      5 C         142.6830  141.8125  167.5369 C.ar    1  UNL1       -0.0017
      6 C         143.2541  142.2290  168.8599 C.ar    1  UNL1        0.0316
      7 C         142.4064  142.9882  169.8371 C.ar    1  UNL1        0.1674
      8 F         142.9775  143.4047  171.1601 F       1  UNL1       -0.2018
      9 C         140.9876  143.3309  169.4914 C.ar    1  UNL1        0.1671
     10 F         140.1399  144.0900  170.4687 F       1  UNL1       -0.2018
     11 C         140.4165  142.9144  168.1684 C.ar    1  UNL1        0.0278
     12 C         139.4123  140.8081  163.4410 C.2     1  UNL1        0.2271
     13 O         137.9673  140.7062  163.0519 O.2     1  UNL1       -0.2747
     14 N         140.4823  140.6329  162.4044 N.am    1  UNL1       -0.2693
     15 H         141.4308  140.6997  162.6598 H       1  UNL1        0.1563
     16 C         140.1073  140.3557  160.9788 C.ar    1  UNL1        0.1343
     17 C         139.8345  141.4936  160.0402 C.ar    1  UNL1        0.0368
     18 C         139.4595  141.2164  158.6146 C.ar    1  UNL1        0.0341
     19 C         139.3571  139.8014  158.1274 C.ar    1  UNL1        0.1593
     20 F         138.9821  139.5243  156.7018 F       1  UNL1       -0.2025
     21 C         139.6298  138.6636  159.0661 C.ar    1  UNL1        0.1298
     22 N         140.0049  138.9408  160.4917 N.ar    1  UNL1       -0.2267
     23 C         141.6561  142.4209  164.9423 C.3     1  UNL1        0.2098
     24 O         141.4593  143.8647  164.5863 O.3     1  UNL1       -0.4723
     25 C         140.3140  145.4251  158.9071 C.3     1  UNL1        0.0736
     26 C         140.6003  145.0350  160.3269 C.ar    1  UNL1        0.1394
     27 N         142.0033  144.7116  160.7475 N.ar    1  UNL1       -0.2260
     28 C         142.2897  144.3215  162.1673 C.ar    1  UNL1        0.1382
     29 C         141.1730  144.2548  163.1665 C.ar    1  UNL1        0.1711
     30 C         139.7700  144.5782  162.7460 C.ar    1  UNL1        0.0960
     31 C         138.6532  144.5115  163.7452 C.3     1  UNL1        0.0555
     32 N         139.4836  144.9683  161.3262 N.ar    1  UNL1       -0.2319
@<TRIPOS>BOND
     1    25    26    1
     2    26    27   ar
     3    27    28   ar
     4    28    29   ar
     5    29    24    1
     6    24    23    1
     7     1    23    1
     8     1     4    1
     9     4     5   ar
    10     5     6   ar
    11     6     7   ar
    12     7     8    1
    13     7     9   ar
    14     9    10    1
    15     9    11   ar
    16     1     2    1
    17     2     3    1
    18     3    12    1
    19    12    13    2
    20    12    14   am
    21    14    16    1
    22    16    17   ar
    23    17    18   ar
    24    18    19   ar
    25    19    20    1
    26    19    21   ar
    27    21    22   ar
    28    29    30   ar
    29    30    31    1
    30    30    32   ar
    31    32    26   ar
    32     3     1    1
    33    22    16   ar
    34    11     4   ar
    35    14    15    1
@<TRIPOS>MOLECULE
*****
 32 35 0 0 0
SMALL
GASTEIGER

@<TRIPOS>ATOM
      1 C         142.4414  142.6649  165.3339 C.3     1  UNL1        0.0679
      2 C         141.0372  143.1769  165.2067 C.3     1  UNL1        0.0177
      3 C         142.0019  143.3431  164.0702 C.3     1  UNL1        0.0845
      4 C         142.3865  142.0959  166.7207 C.ar    1  UNL1       -0.0164
      5 C         141.2998  141.1313  167.0932 C.ar    1  UNL1       -0.0017
      6 C         141.2449  140.5623  168.4800 C.ar    1  UNL1        0.0316
      7 C         142.2767  140.9579  169.4943 C.ar    1  UNL1        0.1674
      8 F         142.2218  140.3889  170.8811 F       1  UNL1       -0.2018
      9 C         143.3634  141.9224  169.1218 C.ar    1  UNL1        0.1671
     10 F         144.3952  142.3180  170.1362 F       1  UNL1       -0.2018
     11 C         143.4183  142.4914  167.7350 C.ar    1  UNL1        0.0278
     12 C         142.3052  143.8306  162.6844 C.2     1  UNL1        0.2271
     13 O         143.4967  144.7091  162.4423 O.2     1  UNL1       -0.2747
     14 N         141.4170  143.4396  161.5406 N.am    1  UNL1       -0.2693
     15 H         140.6350  142.8630  161.6995 H       1  UNL1        0.1563
     16 C         141.7203  143.9270  160.1549 C.ar    1  UNL1        0.1343
     17 C         142.6623  143.1564  159.2781 C.ar    1  UNL1        0.0368
     18 C         142.9655  143.6439  157.8923 C.ar    1  UNL1        0.0341
     19 C         142.3268  144.9020  157.3833 C.ar    1  UNL1        0.1593
     20 F         142.6301  145.3895  155.9975 F       1  UNL1       -0.2025
     21 C         141.3848  145.6726  158.2601 C.ar    1  UNL1        0.1298
     22 N         141.0815  145.1852  159.6458 N.ar    1  UNL1       -0.2267
     23 C         143.8646  142.3505  164.9795 C.3     1  UNL1        0.2098
     24 O         144.3165  140.9233  164.8861 O.3     1  UNL1       -0.4723
     25 C         142.9595  137.6576  160.0391 C.3     1  UNL1        0.0736
     26 C         143.2988  138.4740  161.2509 C.ar    1  UNL1        0.1394
     27 N         144.0851  139.7429  161.1042 N.ar    1  UNL1       -0.2260
     28 C         144.4244  140.5593  162.3160 C.ar    1  UNL1        0.1382
     29 C         143.9773  140.1069  163.6744 C.ar    1  UNL1        0.1711
     30 C         143.1909  138.8380  163.8210 C.ar    1  UNL1        0.0960
     31 C         142.7438  138.3855  165.1795 C.3     1  UNL1        0.0555
     32 N         142.8517  138.0215  162.6093 N.ar    1  UNL1       -0.2319
@<TRIPOS>BOND
     1    25    26    1
     2    26    27   ar
     3    27    28   ar
     4    28    29   ar
     5    29    24    1
     6    24    23    1
     7     1    23    1
     8     1     4    1
     9     4     5   ar
    10     5     6   ar
    11     6     7   ar
    12     7     8    1
    13     7     9   ar
    14     9    10    1
    15     9    11   ar
    16     1     2    1
    17     2     3    1
    18     3    12    1
    19    12    13    2
    20    12    14   am
    21    14    16    1
    22    16    17   ar
    23    17    18   ar
    24    18    19   ar
    25    19    20    1
    26    19    21   ar
    27    21    22   ar
    28    29    30   ar
    29    30    31    1
    30    30    32   ar
    31    32    26   ar
    32     3     1    1
    33    22    16   ar
    34    11     4   ar
    35    14    15    1
@<TRIPOS>MOLECULE
*****
 32 35 0 0 0
SMALL
GASTEIGER

@<TRIPOS>ATOM
      1 C         140.0167  141.2090  166.2539 C.3     1  UNL1        0.0679
      2 C         140.2364  142.6766  166.0352 C.3     1  UNL1        0.0177
      3 C         139.6171  141.8418  164.9539 C.3     1  UNL1        0.0845
      4 C         140.5579  141.0690  167.6458 C.ar    1  UNL1       -0.0164
      5 C         139.7211  140.4319  168.7153 C.ar    1  UNL1       -0.0017
      6 C         140.2623  140.2919  170.1073 C.ar    1  UNL1        0.0316
      7 C         141.6403  140.7891  170.4297 C.ar    1  UNL1        0.1674
      8 F         142.1816  140.6491  171.8216 F       1  UNL1       -0.2018
      9 C         142.4771  141.4262  169.3601 C.ar    1  UNL1        0.1671
     10 F         143.8551  141.9233  169.6825 F       1  UNL1       -0.2018
     11 C         141.9359  141.5662  167.9682 C.ar    1  UNL1        0.0278
     12 C         139.0287  141.7251  163.5790 C.2     1  UNL1        0.2271
     13 O         137.5460  141.8438  163.3851 O.2     1  UNL1       -0.2747
     14 N         139.9231  141.4897  162.3980 N.am    1  UNL1       -0.2693
     15 H         140.8962  141.4118  162.5253 H       1  UNL1        0.1563
     16 C         139.3348  141.3731  161.0232 C.ar    1  UNL1        0.1343
     17 C         139.0851  140.0196  160.4266 C.ar    1  UNL1        0.0368
     18 C         138.4968  139.9030  159.0517 C.ar    1  UNL1        0.0341
     19 C         138.1582  141.1398  158.2734 C.ar    1  UNL1        0.1593
     20 F         137.5699  141.0231  156.8985 F       1  UNL1       -0.2025
     21 C         138.4079  142.4931  158.8700 C.ar    1  UNL1        0.1298
     22 N         138.9961  142.6098  160.2448 N.ar    1  UNL1       -0.2267
     23 C         139.6089  139.7900  165.9890 C.3     1  UNL1        0.2098
     24 O         140.6551  138.7334  165.7913 O.3     1  UNL1       -0.4723
     25 C         142.8748  137.6973  160.3141 C.3     1  UNL1        0.0736
     26 C         142.3199  137.9563  161.6834 C.ar    1  UNL1        0.1394
     27 N         140.9677  137.4256  162.0574 N.ar    1  UNL1       -0.2260
     28 C         140.4128  137.6846  163.4267 C.ar    1  UNL1        0.1382
     29 C         141.2100  138.4744  164.4220 C.ar    1  UNL1        0.1711
     30 C         142.5622  139.0052  164.0480 C.ar    1  UNL1        0.0960
     31 C         143.3595  139.7950  165.0433 C.3     1  UNL1        0.0555
     32 N         143.1171  138.7461  162.6787 N.ar    1  UNL1       -0.2319
@<TRIPOS>BOND
     1    25    26    1
     2    26    27   ar
     3    27    28   ar
     4    28    29   ar
     5    29    24    1
     6    24    23    1
     7     1    23    1
     8     1     4    1
     9     4     5   ar
    10     5     6   ar
    11     6     7   ar
    12     7     8    1
    13     7     9   ar
    14     9    10    1
    15     9    11   ar
    16     1     2    1
    17     2     3    1
    18     3    12    1
    19    12    13    2
    20    12    14   am
    21    14    16    1
    22    16    17   ar
    23    17    18   ar
    24    18    19   ar
    25    19    20    1
    26    19    21   ar
    27    21    22   ar
    28    29    30   ar
    29    30    31    1
    30    30    32   ar
    31    32    26   ar
    32     3     1    1
    33    22    16   ar
    34    11     4   ar
    35    14    15    1
@<TRIPOS>MOLECULE
*****
 32 35 0 0 0
SMALL
GASTEIGER

@<TRIPOS>ATOM
      1 C         140.8239  139.8433  165.7172 C.3     1  UNL1        0.0679
      2 C         139.9777  138.6190  165.5306 C.3     1  UNL1        0.0177
      3 C         140.5555  139.3202  164.3372 C.3     1  UNL1        0.0845
      4 C         140.7948  139.9546  167.2128 C.ar    1  UNL1       -0.0164
      5 C         142.0654  139.8241  167.9994 C.ar    1  UNL1       -0.0017
      6 C         142.0363  139.9354  169.4950 C.ar    1  UNL1        0.0316
      7 C         140.7368  140.1771  170.2039 C.ar    1  UNL1        0.1674
      8 F         140.7077  140.2884  171.6995 F       1  UNL1       -0.2018
      9 C         139.4662  140.3076  169.4173 C.ar    1  UNL1        0.1671
     10 F         138.1666  140.5493  170.1263 F       1  UNL1       -0.2018
     11 C         139.4953  140.1963  167.9218 C.ar    1  UNL1        0.0278
     12 C         140.7343  139.4232  162.8514 C.2     1  UNL1        0.2271
     13 O         140.8567  140.7698  162.2022 O.2     1  UNL1       -0.2747
     14 N         140.7907  138.1793  162.0149 N.am    1  UNL1       -0.2693
     15 H         140.7104  137.2955  162.4410 H       1  UNL1        0.1563
     16 C         140.9694  138.2822  160.5291 C.ar    1  UNL1        0.1343
     17 C         139.7860  138.5538  159.6483 C.ar    1  UNL1        0.0368
     18 C         139.9648  138.6566  158.1626 C.ar    1  UNL1        0.0341
     19 C         141.3270  138.4879  157.5576 C.ar    1  UNL1        0.1593
     20 F         141.5057  138.5908  156.0719 F       1  UNL1       -0.2025
     21 C         142.5103  138.2164  158.4384 C.ar    1  UNL1        0.1298
     22 N         142.3316  138.1135  159.9241 N.ar    1  UNL1       -0.2267
     23 C         141.6802  141.0291  165.3844 C.3     1  UNL1        0.2098
     24 O         141.2375  142.4076  165.7764 O.3     1  UNL1       -0.4723
     25 C         139.6523  146.3637  161.5531 C.3     1  UNL1        0.0736
     26 C         140.0486  145.3747  162.6089 C.ar    1  UNL1        0.1394
     27 N         141.4573  145.3513  163.1238 N.ar    1  UNL1       -0.2260
     28 C         141.8536  144.3623  164.1796 C.ar    1  UNL1        0.1382
     29 C         140.8412  143.3966  164.7205 C.ar    1  UNL1        0.1711
     30 C         139.4326  143.4200  164.2057 C.ar    1  UNL1        0.0960
     31 C         138.4202  142.4543  164.7466 C.3     1  UNL1        0.0555
     32 N         139.0363  144.4091  163.1499 N.ar    1  UNL1       -0.2319
@<TRIPOS>BOND
     1    25    26    1
     2    26    27   ar
     3    27    28   ar
     4    28    29   ar
     5    29    24    1
     6    24    23    1
     7     1    23    1
     8     1     4    1
     9     4     5   ar
    10     5     6   ar
    11     6     7   ar
    12     7     8    1
    13     7     9   ar
    14     9    10    1
    15     9    11   ar
    16     1     2    1
    17     2     3    1
    18     3    12    1
    19    12    13    2
    20    12    14   am
    21    14    16    1
    22    16    17   ar
    23    17    18   ar
    24    18    19   ar
    25    19    20    1
    26    19    21   ar
    27    21    22   ar
    28    29    30   ar
    29    30    31    1
    30    30    32   ar
    31    32    26   ar
    32     3     1    1
    33    22    16   ar
    34    11     4   ar
    35    14    15    1
@<TRIPOS>MOLECULE
*****
 32 35 0 0 0
SMALL
GASTEIGER

@<TRIPOS>ATOM
      1 C         143.2982  140.7594  162.5194 C.3     1  UNL1        0.0679
      2 C         144.6185  140.2373  163.0035 C.3     1  UNL1        0.0177
      3 C         143.5689  140.6532  163.9910 C.3     1  UNL1        0.0845
      4 C         143.5119  140.6739  161.0372 C.ar    1  UNL1       -0.0164
      5 C         144.0374  141.8609  160.2855 C.ar    1  UNL1       -0.0017
      6 C         144.2511  141.7755  158.8033 C.ar    1  UNL1        0.0316
      7 C         143.9394  140.5031  158.0727 C.ar    1  UNL1        0.1674
      8 F         144.1530  140.4177  156.5905 F       1  UNL1       -0.2018
      9 C         143.4138  139.3161  158.8244 C.ar    1  UNL1        0.1671
     10 F         143.1021  138.0438  158.0938 F       1  UNL1       -0.2018
     11 C         143.2002  139.4016  160.3066 C.ar    1  UNL1        0.0278
     12 C         143.1191  140.8320  165.4108 C.2     1  UNL1        0.2271
     13 O         143.3283  142.1456  166.1041 O.2     1  UNL1       -0.2747
     14 N         142.4599  139.6972  166.1373 N.am    1  UNL1       -0.2693
     15 H         142.3226  138.8350  165.6822 H       1  UNL1        0.1563
     16 C         142.0101  139.8759  167.5570 C.ar    1  UNL1        0.1343
     17 C         140.6987  140.5426  167.8500 C.ar    1  UNL1        0.0368
     18 C         140.2490  140.7214  169.2697 C.ar    1  UNL1        0.0341
     19 C         141.1105  140.2334  170.3965 C.ar    1  UNL1        0.1593
     20 F         140.6607  140.4122  171.8162 F       1  UNL1       -0.2025
     21 C         142.4218  139.5667  170.1035 C.ar    1  UNL1        0.1298
     22 N         142.8716  139.3880  168.6838 N.ar    1  UNL1       -0.2267
     23 C         141.9037  141.3111  162.5502 C.3     1  UNL1        0.2098
     24 O         140.7338  140.4073  162.2968 O.3     1  UNL1       -0.4723
     25 C         137.6075  138.1824  166.9095 C.3     1  UNL1        0.0736
     26 C         138.3891  138.7387  165.7563 C.ar    1  UNL1        0.1394
     27 N         138.1410  140.1424  165.2897 N.ar    1  UNL1       -0.2260
     28 C         138.9226  140.6987  164.1365 C.ar    1  UNL1        0.1382
     29 C         139.9522  139.8511  163.4500 C.ar    1  UNL1        0.1711
     30 C         140.2003  138.4473  163.9166 C.ar    1  UNL1        0.0960
     31 C         141.2300  137.5996  163.2301 C.3     1  UNL1        0.0555
     32 N         139.4187  137.8911  165.0698 N.ar    1  UNL1       -0.2319
@<TRIPOS>BOND
     1    25    26    1
     2    26    27   ar
     3    27    28   ar
     4    28    29   ar
     5    29    24    1
     6    24    23    1
     7     1    23    1
     8     1     4    1
     9     4     5   ar
    10     5     6   ar
    11     6     7   ar
    12     7     8    1
    13     7     9   ar
    14     9    10    1
    15     9    11   ar
    16     1     2    1
    17     2     3    1
    18     3    12    1
    19    12    13    2
    20    12    14   am
    21    14    16    1
    22    16    17   ar
    23    17    18   ar
    24    18    19   ar
    25    19    20    1
    26    19    21   ar
    27    21    22   ar
    28    29    30   ar
    29    30    31    1
    30    30    32   ar
    31    32    26   ar
    32     3     1    1
    33    22    16   ar
    34    11     4   ar
    35    14    15    1
@<TRIPOS>MOLECULE
*****
 32 35 0 0 0
SMALL
GASTEIGER

@<TRIPOS>ATOM
      1 C         139.7788  141.2158  165.9898 C.3     1  UNL1        0.0679
      2 C         138.6994  140.1756  166.0427 C.3     1  UNL1        0.0177
      3 C         139.1963  140.6738  164.7181 C.3     1  UNL1        0.0845
      4 C         140.0147  141.4213  167.4568 C.ar    1  UNL1       -0.0164
      5 C         139.9137  140.2612  168.4024 C.ar    1  UNL1       -0.0017
      6 C         140.1497  140.4667  169.8694 C.ar    1  UNL1        0.0316
      7 C         140.4866  141.8322  170.3907 C.ar    1  UNL1        0.1674
      8 F         140.7226  142.0376  171.8577 F       1  UNL1       -0.2018
      9 C         140.5877  142.9922  169.4451 C.ar    1  UNL1        0.1671
     10 F         140.9247  144.3577  169.9665 F       1  UNL1       -0.2018
     11 C         140.3517  142.7867  167.9781 C.ar    1  UNL1        0.0278
     12 C         139.1471  140.6486  163.2191 C.2     1  UNL1        0.2271
     13 O         139.9828  139.6628  162.4576 O.2     1  UNL1       -0.2747
     14 N         138.2620  141.6091  162.4815 N.am    1  UNL1       -0.2693
     15 H         137.7134  142.2561  162.9813 H       1  UNL1        0.1563
     16 C         138.2127  141.5840  160.9826 C.ar    1  UNL1        0.1343
     17 C         137.8516  140.3170  160.2652 C.ar    1  UNL1        0.0368
     18 C         137.8023  140.2919  158.7662 C.ar    1  UNL1        0.0341
     19 C         138.1140  141.5337  157.9846 C.ar    1  UNL1        0.1593
     20 F         138.0647  141.5085  156.4857 F       1  UNL1       -0.2025
     21 C         138.4750  142.8005  158.7020 C.ar    1  UNL1        0.1298
     22 N         138.5243  142.8257  160.2010 N.ar    1  UNL1       -0.2267
     23 C         140.7762  142.1847  165.4272 C.3     1  UNL1        0.2098
     24 O         142.2254  141.8065  165.3456 O.3     1  UNL1       -0.4723
     25 C         144.0992  138.0056  161.0980 C.3     1  UNL1        0.0736
     26 C         143.6308  138.9558  162.1599 C.ar    1  UNL1        0.1394
     27 N         143.4641  140.4123  161.8425 N.ar    1  UNL1       -0.2260
     28 C         142.9957  141.3625  162.9044 C.ar    1  UNL1        0.1382
     29 C         142.6938  140.8562  164.2837 C.ar    1  UNL1        0.1711
     30 C         142.8605  139.3998  164.6011 C.ar    1  UNL1        0.0960
     31 C         142.5587  138.8934  165.9805 C.3     1  UNL1        0.0555
     32 N         143.3290  138.4495  163.5392 N.ar    1  UNL1       -0.2319
@<TRIPOS>BOND
     1    25    26    1
     2    26    27   ar
     3    27    28   ar
     4    28    29   ar
     5    29    24    1
     6    24    23    1
     7     1    23    1
     8     1     4    1
     9     4     5   ar
    10     5     6   ar
    11     6     7   ar
    12     7     8    1
    13     7     9   ar
    14     9    10    1
    15     9    11   ar
    16     1     2    1
    17     2     3    1
    18     3    12    1
    19    12    13    2
    20    12    14   am
    21    14    16    1
    22    16    17   ar
    23    17    18   ar
    24    18    19   ar
    25    19    20    1
    26    19    21   ar
    27    21    22   ar
    28    29    30   ar
    29    30    31    1
    30    30    32   ar
    31    32    26   ar
    32     3     1    1
    33    22    16   ar
    34    11     4   ar
    35    14    15    1
