@<TRIPOS>MOLECULE
*****
 36 39 0 0 0
SMALL
GASTEIGER

@<TRIPOS>ATOM
      1 C         139.4619  140.6391  161.9402 C.3     1  UNL1        0.0690
      2 C         140.1049  139.3746  161.4530 C.3     1  UNL1        0.0485
      3 C         139.7907  138.8535  160.0819 C.3     1  UNL1        0.1436
      4 O         138.8335  139.5970  159.1981 O.3     1  UNL1       -0.3537
      5 C         138.1906  140.8616  159.6854 C.3     1  UNL1        0.1436
      6 C         138.5047  141.3826  161.0564 C.3     1  UNL1        0.0485
      7 N         140.2964  140.2931  163.1377 N.3     1  UNL1       -0.2710
      8 C         141.7527  139.9752  162.9704 C.3     1  UNL1        0.0897
      9 C         142.5872  139.6291  164.1679 C.3     1  UNL1        0.0899
     10 N         141.9653  139.6010  165.5326 N.3     1  UNL1       -0.2679
     11 C         140.5090  139.9189  165.6999 C.3     1  UNL1        0.0899
     12 C         139.6745  140.2649  164.5024 C.3     1  UNL1        0.0897
     13 C         142.7998  139.2549  166.7301 C.3     1  UNL1        0.0802
     14 C         143.7228  138.0735  166.6849 C.3     1  UNL1        0.0222
     15 C         142.7112  140.0904  167.9727 C.ar    1  UNL1       -0.0078
     16 C         142.8717  141.5794  167.8884 C.ar    1  UNL1       -0.0030
     17 C         142.7831  142.4149  169.1310 C.ar    1  UNL1       -0.0003
     18 C         142.5341  141.7614  170.4580 C.ar    1  UNL1       -0.0000
     19 C         142.3736  140.2724  170.5424 C.ar    1  UNL1       -0.0003
     20 C         142.4622  139.4369  169.2997 C.ar    1  UNL1       -0.0030
     21 C         139.1088  141.7835  162.8433 C.3     1  UNL1        0.1143
     22 C         138.9286  144.3602  162.5640 C.2     1  UNL1        0.2304
     23 O         137.4348  144.2665  162.6635 O.2     1  UNL1       -0.2745
     24 N         139.7655  143.1187  162.6540 N.am    1  UNL1       -0.2425
     25 C         141.2593  143.2124  162.5545 C.ar    1  UNL1        0.1373
     26 C         141.9306  143.0985  161.2180 C.ar    1  UNL1        0.0347
     27 C         143.4244  143.1922  161.1185 C.ar    1  UNL1        0.0044
     28 C         144.2468  143.3998  162.3556 C.ar    1  UNL1        0.0232
     29 C         143.5755  143.5137  163.6921 C.ar    1  UNL1        0.1540
     30 N         142.0818  143.4200  163.7917 N.ar    1  UNL1       -0.2263
     31 C         144.3980  143.7213  164.9294 C.3     1  UNL1        0.4349
     32 F         145.2204  143.9290  166.1665 F       1  UNL1       -0.1644
     33 F         144.5553  142.2366  165.0738 F       1  UNL1       -0.1644
     34 F         144.2406  145.2060  164.7848 F       1  UNL1       -0.1644
     35 C         139.8383  146.2175  160.9914 C.3     1  UNL1        0.0101
     36 C         139.5853  145.6955  162.3746 C.3     1  UNL1        0.0857
@<TRIPOS>BOND
     1    35    36    1
     2    36    22    1
     3    22    23    2
     4    22    24   am
     5    24    21    1
     6    21     1    1
     7     1     7    1
     8     7     8    1
     9     8     9    1
    10     9    10    1
    11    10    13    1
    12    13    14    1
    13    13    15    1
    14    15    16   ar
    15    16    17   ar
    16    17    18   ar
    17    18    19   ar
    18    19    20   ar
    19    10    11    1
    20    11    12    1
    21     1     2    1
    22     2     3    1
    23     3     4    1
    24     4     5    1
    25     5     6    1
    26    24    25    1
    27    25    26   ar
    28    26    27   ar
    29    27    28   ar
    30    28    29   ar
    31    29    31    1
    32    31    32    1
    33    31    33    1
    34    31    34    1
    35    29    30   ar
    36     6     1    1
    37    30    25   ar
    38    12     7    1
    39    20    15   ar
@<TRIPOS>MOLECULE
*****
 36 39 0 0 0
SMALL
GASTEIGER

@<TRIPOS>ATOM
      1 C         140.0025  142.8005  161.9573 C.3     1  UNL1        0.0690
      2 C         138.7216  142.1056  161.6020 C.3     1  UNL1        0.0485
      3 C         138.0996  142.3223  160.2543 C.3     1  UNL1        0.1436
      4 O         138.7585  143.2340  159.2620 O.3     1  UNL1       -0.3537
      5 C         140.0394  143.9289  159.6174 C.3     1  UNL1        0.1436
      6 C         140.6615  143.7122  160.9650 C.3     1  UNL1        0.0485
      7 N         139.7591  142.0382  163.2261 N.3     1  UNL1       -0.2710
      8 C         139.9084  142.7224  164.5525 C.3     1  UNL1        0.0897
      9 C         139.6650  141.9601  165.8212 C.3     1  UNL1        0.0899
     10 N         139.2722  140.5136  165.7635 N.3     1  UNL1       -0.2679
     11 C         139.1229  139.8294  164.4370 C.3     1  UNL1        0.0899
     12 C         139.3664  140.5917  163.1683 C.3     1  UNL1        0.0897
     13 C         139.0288  139.7513  167.0323 C.3     1  UNL1        0.0802
     14 C         137.9000  138.7667  167.1108 C.3     1  UNL1        0.0222
     15 C         139.9143  139.9737  168.2224 C.ar    1  UNL1       -0.0078
     16 C         139.3161  140.3782  169.5371 C.ar    1  UNL1       -0.0030
     17 C         140.2015  140.6006  170.7273 C.ar    1  UNL1       -0.0003
     18 C         141.6852  140.4186  170.6028 C.ar    1  UNL1       -0.0000
     19 C         142.2835  140.0141  169.2880 C.ar    1  UNL1       -0.0003
     20 C         141.3980  139.7917  168.0978 C.ar    1  UNL1       -0.0030
     21 C         141.1989  143.2307  162.7533 C.3     1  UNL1        0.1143
     22 C         143.7519  143.3375  162.2838 C.2     1  UNL1        0.2304
     23 O         143.6728  144.8327  162.1934 O.2     1  UNL1       -0.2745
     24 N         142.5150  142.5365  162.5637 N.am    1  UNL1       -0.2425
     25 C         142.5942  141.0413  162.6541 C.ar    1  UNL1        0.1373
     26 C         142.4051  140.2046  161.4235 C.ar    1  UNL1        0.0347
     27 C         142.4843  138.7094  161.5139 C.ar    1  UNL1        0.0044
     28 C         142.7525  138.0510  162.8347 C.ar    1  UNL1        0.0232
     29 C         142.9415  138.8878  164.0652 C.ar    1  UNL1        0.1540
     30 N         142.8623  140.3829  163.9749 N.ar    1  UNL1       -0.2263
     31 C         143.2097  138.2293  165.3861 C.3     1  UNL1        0.4349
     32 F         143.4779  137.5709  166.7069 F       1  UNL1       -0.1644
     33 F         141.7938  137.7360  165.4275 F       1  UNL1       -0.1644
     34 F         144.6256  138.7227  165.3445 F       1  UNL1       -0.1644
     35 C         145.7524  142.0004  163.2639 C.3     1  UNL1        0.0101
     36 C         145.0681  142.6434  162.0942 C.3     1  UNL1        0.0857
@<TRIPOS>BOND
     1    35    36    1
     2    36    22    1
     3    22    23    2
     4    22    24   am
     5    24    21    1
     6    21     1    1
     7     1     7    1
     8     7     8    1
     9     8     9    1
    10     9    10    1
    11    10    13    1
    12    13    14    1
    13    13    15    1
    14    15    16   ar
    15    16    17   ar
    16    17    18   ar
    17    18    19   ar
    18    19    20   ar
    19    10    11    1
    20    11    12    1
    21     1     2    1
    22     2     3    1
    23     3     4    1
    24     4     5    1
    25     5     6    1
    26    24    25    1
    27    25    26   ar
    28    26    27   ar
    29    27    28   ar
    30    28    29   ar
    31    29    31    1
    32    31    32    1
    33    31    33    1
    34    31    34    1
    35    29    30   ar
    36     6     1    1
    37    30    25   ar
    38    12     7    1
    39    20    15   ar
@<TRIPOS>MOLECULE
*****
 36 39 0 0 0
SMALL
GASTEIGER

@<TRIPOS>ATOM
      1 C         141.3593  139.4359  161.2848 C.3     1  UNL1        0.0690
      2 C         140.0213  138.8269  160.9866 C.3     1  UNL1        0.0485
      3 C         139.6828  138.4092  159.5863 C.3     1  UNL1        0.1436
      4 O         140.6822  138.6005  158.4842 O.3     1  UNL1       -0.3537
      5 C         142.0201  139.2095  158.7824 C.3     1  UNL1        0.1436
      6 C         142.3587  139.6272  160.1827 C.3     1  UNL1        0.0485
      7 N         140.7512  139.4588  162.6559 N.3     1  UNL1       -0.2710
      8 C         141.5428  138.9777  163.8356 C.3     1  UNL1        0.0897
      9 C         140.9347  139.0007  165.2066 C.3     1  UNL1        0.0899
     10 N         139.5350  139.5048  165.3979 N.3     1  UNL1       -0.2679
     11 C         138.7433  139.9859  164.2182 C.3     1  UNL1        0.0899
     12 C         139.3514  139.9629  162.8472 C.3     1  UNL1        0.0897
     13 C         138.9269  139.5278  166.7689 C.3     1  UNL1        0.0802
     14 C         137.8150  138.5813  167.1122 C.3     1  UNL1        0.0222
     15 C         139.4308  140.4972  167.7967 C.ar    1  UNL1       -0.0078
     16 C         139.2250  140.2176  169.2559 C.ar    1  UNL1       -0.0030
     17 C         139.7289  141.1870  170.2837 C.ar    1  UNL1       -0.0003
     18 C         140.4385  142.4361  169.8522 C.ar    1  UNL1       -0.0000
     19 C         140.6443  142.7158  168.3929 C.ar    1  UNL1       -0.0003
     20 C         140.1404  141.7463  167.3651 C.ar    1  UNL1       -0.0030
     21 C         142.4861  140.0529  162.0592 C.3     1  UNL1        0.1143
     22 C         144.0681  142.1136  162.0357 C.2     1  UNL1        0.2304
     23 O         145.2579  141.2002  162.0466 O.2     1  UNL1       -0.2745
     24 N         142.6821  141.5398  162.0420 N.am    1  UNL1       -0.2425
     25 C         141.4923  142.4532  162.0311 C.ar    1  UNL1        0.1373
     26 C         140.8693  142.8576  160.7279 C.ar    1  UNL1        0.0347
     27 C         139.6794  143.7709  160.7169 C.ar    1  UNL1        0.0044
     28 C         139.1126  144.2798  162.0092 C.ar    1  UNL1        0.0232
     29 C         139.7357  143.8753  163.3123 C.ar    1  UNL1        0.1540
     30 N         140.9255  142.9620  163.3233 N.ar    1  UNL1       -0.2263
     31 C         139.1689  144.3842  164.6046 C.3     1  UNL1        0.4349
     32 F         138.6021  144.8931  165.8968 F       1  UNL1       -0.1644
     33 F         140.5202  144.2643  165.2444 F       1  UNL1       -0.1644
     34 F         137.8176  144.5041  163.9646 F       1  UNL1       -0.1644
     35 C         144.1541  144.3865  163.2913 C.3     1  UNL1        0.0101
     36 C         144.2642  143.6006  162.0184 C.3     1  UNL1        0.0857
@<TRIPOS>BOND
     1    35    36    1
     2    36    22    1
     3    22    23    2
     4    22    24   am
     5    24    21    1
     6    21     1    1
     7     1     7    1
     8     7     8    1
     9     8     9    1
    10     9    10    1
    11    10    13    1
    12    13    14    1
    13    13    15    1
    14    15    16   ar
    15    16    17   ar
    16    17    18   ar
    17    18    19   ar
    18    19    20   ar
    19    10    11    1
    20    11    12    1
    21     1     2    1
    22     2     3    1
    23     3     4    1
    24     4     5    1
    25     5     6    1
    26    24    25    1
    27    25    26   ar
    28    26    27   ar
    29    27    28   ar
    30    28    29   ar
    31    29    31    1
    32    31    32    1
    33    31    33    1
    34    31    34    1
    35    29    30   ar
    36     6     1    1
    37    30    25   ar
    38    12     7    1
    39    20    15   ar
@<TRIPOS>MOLECULE
*****
 36 39 0 0 0
SMALL
GASTEIGER

@<TRIPOS>ATOM
      1 C         142.9766  140.4236  161.9843 C.3     1  UNL1        0.0690
      2 C         143.7567  139.1671  162.2343 C.3     1  UNL1        0.0485
      3 C         144.3473  138.4093  161.0823 C.3     1  UNL1        0.1436
      4 O         144.1577  138.9081  159.6804 O.3     1  UNL1       -0.3537
      5 C         143.3776  140.1646  159.4305 C.3     1  UNL1        0.1436
      6 C         142.7871  140.9224  160.5824 C.3     1  UNL1        0.0485
      7 N         142.8840  140.3527  163.4798 N.3     1  UNL1       -0.2710
      8 C         142.6030  139.0419  164.1525 C.3     1  UNL1        0.0897
      9 C         142.5104  138.9710  165.6480 C.3     1  UNL1        0.0899
     10 N         142.6989  140.2110  166.4707 N.3     1  UNL1       -0.2679
     11 C         142.9800  141.5219  165.7980 C.3     1  UNL1        0.0899
     12 C         143.0725  141.5927  164.3026 C.3     1  UNL1        0.0897
     13 C         142.6063  140.1401  167.9662 C.3     1  UNL1        0.0802
     14 C         142.9126  138.8549  168.6765 C.3     1  UNL1        0.0222
     15 C         142.2075  141.3544  168.7514 C.ar    1  UNL1       -0.0078
     16 C         140.8233  141.9156  168.6132 C.ar    1  UNL1       -0.0030
     17 C         140.4245  143.1299  169.3983 C.ar    1  UNL1       -0.0003
     18 C         141.4098  143.7829  170.3216 C.ar    1  UNL1       -0.0000
     19 C         142.7941  143.2217  170.4599 C.ar    1  UNL1       -0.0003
     20 C         143.1929  142.0074  169.6747 C.ar    1  UNL1       -0.0030
     21 C         142.1643  141.6556  162.2537 C.3     1  UNL1        0.1143
     22 C         139.8956  142.8162  161.7482 C.2     1  UNL1        0.2304
     23 O         140.6199  144.0865  161.4139 O.2     1  UNL1       -0.2745
     24 N         140.6678  141.6008  162.1682 N.am    1  UNL1       -0.2425
     25 C         139.9434  140.3305  162.5025 C.ar    1  UNL1        0.1373
     26 C         139.7053  139.3006  161.4383 C.ar    1  UNL1        0.0347
     27 C         138.9809  138.0303  161.7726 C.ar    1  UNL1        0.0044
     28 C         138.4948  137.7901  163.1712 C.ar    1  UNL1        0.0232
     29 C         138.7329  138.8200  164.2353 C.ar    1  UNL1        0.1540
     30 N         139.4573  140.0902  163.9010 N.ar    1  UNL1       -0.2263
     31 C         138.2467  138.5797  165.6339 C.3     1  UNL1        0.4349
     32 F         137.7605  138.3394  167.0324 F       1  UNL1       -0.1644
     33 F         138.6272  137.1335  165.5176 F       1  UNL1       -0.1644
     34 F         137.8662  140.0260  165.7501 F       1  UNL1       -0.1644
     35 C         137.5645  143.1935  162.8317 C.3     1  UNL1        0.0101
     36 C         138.3990  142.7615  161.6626 C.3     1  UNL1        0.0857
@<TRIPOS>BOND
     1    35    36    1
     2    36    22    1
     3    22    23    2
     4    22    24   am
     5    24    21    1
     6    21     1    1
     7     1     7    1
     8     7     8    1
     9     8     9    1
    10     9    10    1
    11    10    13    1
    12    13    14    1
    13    13    15    1
    14    15    16   ar
    15    16    17   ar
    16    17    18   ar
    17    18    19   ar
    18    19    20   ar
    19    10    11    1
    20    11    12    1
    21     1     2    1
    22     2     3    1
    23     3     4    1
    24     4     5    1
    25     5     6    1
    26    24    25    1
    27    25    26   ar
    28    26    27   ar
    29    27    28   ar
    30    28    29   ar
    31    29    31    1
    32    31    32    1
    33    31    33    1
    34    31    34    1
    35    29    30   ar
    36     6     1    1
    37    30    25   ar
    38    12     7    1
    39    20    15   ar
@<TRIPOS>MOLECULE
*****
 36 39 0 0 0
SMALL
GASTEIGER

@<TRIPOS>ATOM
      1 C         140.0423  143.0864  161.6284 C.3     1  UNL1        0.0690
      2 C         140.0569  144.3837  162.3810 C.3     1  UNL1        0.0485
      3 C         140.0409  145.6844  161.6341 C.3     1  UNL1        0.1436
      4 O         140.0102  145.6877  160.1343 O.3     1  UNL1       -0.3537
      5 C         139.9956  144.3903  159.3817 C.3     1  UNL1        0.1436
      6 C         140.0117  143.0896  160.1287 C.3     1  UNL1        0.0485
      7 N         140.0715  142.5703  163.0365 N.3     1  UNL1       -0.2710
      8 C         141.0665  143.1186  164.0159 C.3     1  UNL1        0.0897
      9 C         141.0956  142.6024  165.4240 C.3     1  UNL1        0.0899
     10 N         140.1296  141.5380  165.8527 N.3     1  UNL1       -0.2679
     11 C         139.1345  140.9897  164.8733 C.3     1  UNL1        0.0899
     12 C         139.1055  141.5058  163.4653 C.3     1  UNL1        0.0897
     13 C         140.1587  141.0218  167.2608 C.3     1  UNL1        0.0802
     14 C         139.3033  139.8524  167.6488 C.3     1  UNL1        0.0222
     15 C         141.0432  141.6753  168.2810 C.ar    1  UNL1       -0.0078
     16 C         142.4247  141.1447  168.5258 C.ar    1  UNL1       -0.0030
     17 C         143.3092  141.7981  169.5459 C.ar    1  UNL1       -0.0003
     18 C         142.8123  142.9821  170.3212 C.ar    1  UNL1       -0.0000
     19 C         141.4307  143.5127  170.0764 C.ar    1  UNL1       -0.0003
     20 C         140.5462  142.8593  169.0563 C.ar    1  UNL1       -0.0030
     21 C         140.0379  141.6097  161.3647 C.3     1  UNL1        0.1143
     22 C         141.3418  140.1486  159.6575 C.2     1  UNL1        0.2304
     23 O         140.1191  140.0685  158.7922 O.2     1  UNL1       -0.2745
     24 N         141.3011  140.9192  160.9437 N.am    1  UNL1       -0.2425
     25 C         142.5238  140.9993  161.8090 C.ar    1  UNL1        0.1373
     26 C         143.6122  141.9778  161.4806 C.ar    1  UNL1        0.0347
     27 C         144.8349  142.0579  162.3459 C.ar    1  UNL1        0.0044
     28 C         144.9691  141.1594  163.5395 C.ar    1  UNL1        0.0232
     29 C         143.8807  140.1809  163.8678 C.ar    1  UNL1        0.1540
     30 N         142.6581  140.1008  163.0026 N.ar    1  UNL1       -0.2263
     31 C         144.0150  139.2823  165.0615 C.3     1  UNL1        0.4349
     32 F         144.1492  138.3838  166.2551 F       1  UNL1       -0.1644
     33 F         145.4591  139.0536  164.7267 F       1  UNL1       -0.1644
     34 F         142.5708  139.5111  165.3961 F       1  UNL1       -0.1644
     35 C         142.8406  138.0267  159.6185 C.3     1  UNL1        0.0101
     36 C         142.6050  139.4580  159.2364 C.3     1  UNL1        0.0857
@<TRIPOS>BOND
     1    35    36    1
     2    36    22    1
     3    22    23    2
     4    22    24   am
     5    24    21    1
     6    21     1    1
     7     1     7    1
     8     7     8    1
     9     8     9    1
    10     9    10    1
    11    10    13    1
    12    13    14    1
    13    13    15    1
    14    15    16   ar
    15    16    17   ar
    16    17    18   ar
    17    18    19   ar
    18    19    20   ar
    19    10    11    1
    20    11    12    1
    21     1     2    1
    22     2     3    1
    23     3     4    1
    24     4     5    1
    25     5     6    1
    26    24    25    1
    27    25    26   ar
    28    26    27   ar
    29    27    28   ar
    30    28    29   ar
    31    29    31    1
    32    31    32    1
    33    31    33    1
    34    31    34    1
    35    29    30   ar
    36     6     1    1
    37    30    25   ar
    38    12     7    1
    39    20    15   ar
@<TRIPOS>MOLECULE
*****
 36 39 0 0 0
SMALL
GASTEIGER

@<TRIPOS>ATOM
      1 C         142.5191  141.9880  161.2324 C.3     1  UNL1        0.0690
      2 C         143.1416  140.7121  160.7480 C.3     1  UNL1        0.0485
      3 C         143.4306  140.5256  159.2880 C.3     1  UNL1        0.1436
      4 O         143.0972  141.6151  158.3123 O.3     1  UNL1       -0.3537
      5 C         142.4747  142.8910  158.7967 C.3     1  UNL1        0.1436
      6 C         142.1856  143.0774  160.2567 C.3     1  UNL1        0.0485
      7 N         142.6524  141.2530  162.5332 N.3     1  UNL1       -0.2710
      8 C         143.1320  141.9755  163.7571 C.3     1  UNL1        0.0897
      9 C         143.2653  141.2405  165.0579 C.3     1  UNL1        0.0899
     10 N         142.9191  139.7830  165.1347 N.3     1  UNL1       -0.2679
     11 C         142.4395  139.0605  163.9108 C.3     1  UNL1        0.0899
     12 C         142.3062  139.7955  162.6100 C.3     1  UNL1        0.0897
     13 C         143.0524  139.0480  166.4355 C.3     1  UNL1        0.0802
     14 C         144.0799  137.9653  166.5833 C.3     1  UNL1        0.0222
     15 C         142.1582  139.3958  167.5885 C.ar    1  UNL1       -0.0078
     16 C         140.7637  139.8866  167.3347 C.ar    1  UNL1       -0.0030
     17 C         139.8694  140.2344  168.4876 C.ar    1  UNL1       -0.0003
     18 C         140.3697  140.0913  169.8945 C.ar    1  UNL1       -0.0000
     19 C         141.7642  139.6005  170.1484 C.ar    1  UNL1       -0.0003
     20 C         142.6585  139.2528  168.9954 C.ar    1  UNL1       -0.0030
     21 C         141.9429  143.0086  162.1685 C.3     1  UNL1        0.1143
     22 C         139.8028  144.4109  162.6196 C.2     1  UNL1        0.2304
     23 O         140.6306  145.6613  162.6595 O.2     1  UNL1       -0.2745
     24 N         140.4590  143.0846  162.3741 N.am    1  UNL1       -0.2425
     25 C         139.6313  141.8343  162.3342 C.ar    1  UNL1        0.1373
     26 C         139.0309  141.3734  161.0392 C.ar    1  UNL1        0.0347
     27 C         138.2032  140.1230  160.9993 C.ar    1  UNL1        0.0044
     28 C         137.9759  139.3337  162.2544 C.ar    1  UNL1        0.0232
     29 C         138.5763  139.7947  163.5493 C.ar    1  UNL1        0.1540
     30 N         139.4040  141.0450  163.5893 N.ar    1  UNL1       -0.2263
     31 C         138.3489  139.0053  164.8045 C.3     1  UNL1        0.4349
     32 F         138.1216  138.2160  166.0596 F       1  UNL1       -0.1644
     33 F         137.9081  140.2537  165.5096 F       1  UNL1       -0.1644
     34 F         138.7898  137.7570  164.0993 F       1  UNL1       -0.1644
     35 C         137.7391  144.2726  164.1918 C.3     1  UNL1        0.0101
     36 C         138.3190  144.4870  162.8252 C.3     1  UNL1        0.0857
@<TRIPOS>BOND
     1    35    36    1
     2    36    22    1
     3    22    23    2
     4    22    24   am
     5    24    21    1
     6    21     1    1
     7     1     7    1
     8     7     8    1
     9     8     9    1
    10     9    10    1
    11    10    13    1
    12    13    14    1
    13    13    15    1
    14    15    16   ar
    15    16    17   ar
    16    17    18   ar
    17    18    19   ar
    18    19    20   ar
    19    10    11    1
    20    11    12    1
    21     1     2    1
    22     2     3    1
    23     3     4    1
    24     4     5    1
    25     5     6    1
    26    24    25    1
    27    25    26   ar
    28    26    27   ar
    29    27    28   ar
    30    28    29   ar
    31    29    31    1
    32    31    32    1
    33    31    33    1
    34    31    34    1
    35    29    30   ar
    36     6     1    1
    37    30    25   ar
    38    12     7    1
    39    20    15   ar
@<TRIPOS>MOLECULE
*****
 36 39 0 0 0
SMALL
GASTEIGER

@<TRIPOS>ATOM
      1 C         139.9423  139.7011  161.1525 C.3     1  UNL1        0.0690
      2 C         138.4565  139.8868  161.0644 C.3     1  UNL1        0.0485
      3 C         137.8094  140.1359  159.7343 C.3     1  UNL1        0.1436
      4 O         138.6481  140.1993  158.4923 O.3     1  UNL1       -0.3537
      5 C         140.1339  140.0135  158.5804 C.3     1  UNL1        0.1436
      6 C         140.7810  139.7644  159.9105 C.3     1  UNL1        0.0485
      7 N         139.5753  139.5557  162.5997 N.3     1  UNL1       -0.2710
      8 C         138.6386  140.5379  163.2383 C.3     1  UNL1        0.0897
      9 C         138.2717  140.3925  164.6854 C.3     1  UNL1        0.0899
     10 N         138.8414  139.2648  165.4939 N.3     1  UNL1       -0.2679
     11 C         139.7781  138.2826  164.8554 C.3     1  UNL1        0.0899
     12 C         140.1450  138.4280  163.4083 C.3     1  UNL1        0.0897
     13 C         138.4744  139.1194  166.9411 C.3     1  UNL1        0.0802
     14 C         137.3500  138.2114  167.3421 C.3     1  UNL1        0.0222
     15 C         139.2320  139.8822  167.9872 C.ar    1  UNL1       -0.0078
     16 C         140.5248  140.5563  167.6349 C.ar    1  UNL1       -0.0030
     17 C         141.2824  141.3190  168.6810 C.ar    1  UNL1       -0.0003
     18 C         140.7471  141.4077  170.0794 C.ar    1  UNL1       -0.0000
     19 C         139.4542  140.7336  170.4318 C.ar    1  UNL1       -0.0003
     20 C         138.6967  139.9708  169.3857 C.ar    1  UNL1       -0.0030
     21 C         141.3007  139.4648  161.7433 C.3     1  UNL1        0.1143
     22 C         143.6272  140.5844  161.4543 C.2     1  UNL1        0.2304
     23 O         144.1055  139.3910  160.6815 O.2     1  UNL1       -0.2745
     24 N         142.2248  140.6212  161.9852 N.am    1  UNL1       -0.2425
     25 C         141.7465  141.8146  162.7580 C.ar    1  UNL1        0.1373
     26 C         141.8352  141.8231  164.2553 C.ar    1  UNL1        0.0347
     27 C         141.3569  143.0165  165.0281 C.ar    1  UNL1        0.0044
     28 C         140.7900  144.2013  164.3035 C.ar    1  UNL1        0.0232
     29 C         140.7014  144.1926  162.8062 C.ar    1  UNL1        0.1540
     30 N         141.1797  142.9993  162.0333 N.ar    1  UNL1       -0.2263
     31 C         140.1345  145.3774  162.0815 C.3     1  UNL1        0.4349
     32 F         139.5677  146.5622  161.3569 F       1  UNL1       -0.1644
     33 F         139.0684  145.5076  163.1286 F       1  UNL1       -0.1644
     34 F         141.2007  145.2472  161.0345 F       1  UNL1       -0.1644
     35 C         145.4299  141.7573  162.9119 C.3     1  UNL1        0.0101
     36 C         144.5514  141.7408  161.6962 C.3     1  UNL1        0.0857
@<TRIPOS>BOND
     1    35    36    1
     2    36    22    1
     3    22    23    2
     4    22    24   am
     5    24    21    1
     6    21     1    1
     7     1     7    1
     8     7     8    1
     9     8     9    1
    10     9    10    1
    11    10    13    1
    12    13    14    1
    13    13    15    1
    14    15    16   ar
    15    16    17   ar
    16    17    18   ar
    17    18    19   ar
    18    19    20   ar
    19    10    11    1
    20    11    12    1
    21     1     2    1
    22     2     3    1
    23     3     4    1
    24     4     5    1
    25     5     6    1
    26    24    25    1
    27    25    26   ar
    28    26    27   ar
    29    27    28   ar
    30    28    29   ar
    31    29    31    1
    32    31    32    1
    33    31    33    1
    34    31    34    1
    35    29    30   ar
    36     6     1    1
    37    30    25   ar
    38    12     7    1
    39    20    15   ar
@<TRIPOS>MOLECULE
*****
 36 39 0 0 0
SMALL
GASTEIGER

@<TRIPOS>ATOM
      1 C         141.3956  138.9214  161.8191 C.3     1  UNL1        0.0690
      2 C         142.6987  138.5841  162.4809 C.3     1  UNL1        0.0485
      3 C         143.8563  138.1037  161.6568 C.3     1  UNL1        0.1436
      4 O         143.7107  137.9608  160.1707 O.3     1  UNL1       -0.3537
      5 C         142.4077  138.2981  159.5088 C.3     1  UNL1        0.1436
      6 C         141.2501  138.7784  160.3330 C.3     1  UNL1        0.0485
      7 N         141.0464  139.2172  163.2476 N.3     1  UNL1       -0.2710
      8 C         141.9245  140.1195  164.0629 C.3     1  UNL1        0.0897
      9 C         141.5753  140.4153  165.4914 C.3     1  UNL1        0.0899
     10 N         140.3480  139.8088  166.1045 N.3     1  UNL1       -0.2679
     11 C         139.4699  138.9066  165.2892 C.3     1  UNL1        0.0899
     12 C         139.8191  138.6108  163.8607 C.3     1  UNL1        0.0897
     13 C         139.9988  140.1047  167.5330 C.3     1  UNL1        0.0802
     14 C         138.7166  139.5872  168.1143 C.3     1  UNL1        0.0222
     15 C         140.9320  140.9180  168.3802 C.ar    1  UNL1       -0.0078
     16 C         140.5944  142.3409  168.7140 C.ar    1  UNL1       -0.0030
     17 C         141.5275  143.1542  169.5612 C.ar    1  UNL1       -0.0003
     18 C         142.7983  142.5447  170.0746 C.ar    1  UNL1       -0.0000
     19 C         143.1359  141.1217  169.7408 C.ar    1  UNL1       -0.0003
     20 C         142.2028  140.3084  168.8936 C.ar    1  UNL1       -0.0030
     21 C         139.9712  139.3615  161.6533 C.3     1  UNL1        0.1143
     22 C         138.7539  140.8886  159.9398 C.2     1  UNL1        0.2304
     23 O         138.1465  139.6790  159.2933 O.2     1  UNL1       -0.2745
     24 N         139.6662  140.7298  161.1198 N.am    1  UNL1       -0.2425
     25 C         140.2736  141.9394  161.7664 C.ar    1  UNL1        0.1373
     26 C         141.5805  142.4802  161.2668 C.ar    1  UNL1        0.0347
     27 C         142.1879  143.6899  161.9133 C.ar    1  UNL1        0.0044
     28 C         141.4883  144.3586  163.0594 C.ar    1  UNL1        0.0232
     29 C         140.1815  143.8177  163.5589 C.ar    1  UNL1        0.1540
     30 N         139.5741  142.6082  162.9124 N.ar    1  UNL1       -0.2263
     31 C         139.4819  144.4865  164.7050 C.3     1  UNL1        0.4349
     32 F         138.7824  145.1553  165.8510 F       1  UNL1       -0.1644
     33 F         140.0948  143.5003  165.6545 F       1  UNL1       -0.1644
     34 F         138.8690  145.4727  163.7554 F       1  UNL1       -0.1644
     35 C         139.2996  142.8452  158.3200 C.3     1  UNL1        0.0101
     36 C         138.4489  142.2569  159.4063 C.3     1  UNL1        0.0857
@<TRIPOS>BOND
     1    35    36    1
     2    36    22    1
     3    22    23    2
     4    22    24   am
     5    24    21    1
     6    21     1    1
     7     1     7    1
     8     7     8    1
     9     8     9    1
    10     9    10    1
    11    10    13    1
    12    13    14    1
    13    13    15    1
    14    15    16   ar
    15    16    17   ar
    16    17    18   ar
    17    18    19   ar
    18    19    20   ar
    19    10    11    1
    20    11    12    1
    21     1     2    1
    22     2     3    1
    23     3     4    1
    24     4     5    1
    25     5     6    1
    26    24    25    1
    27    25    26   ar
    28    26    27   ar
    29    27    28   ar
    30    28    29   ar
    31    29    31    1
    32    31    32    1
    33    31    33    1
    34    31    34    1
    35    29    30   ar
    36     6     1    1
    37    30    25   ar
    38    12     7    1
    39    20    15   ar
@<TRIPOS>MOLECULE
*****
 36 39 0 0 0
SMALL
GASTEIGER

@<TRIPOS>ATOM
      1 C         141.1069  139.7133  160.9996 C.3     1  UNL1        0.0690
      2 C         141.8308  138.5013  161.5064 C.3     1  UNL1        0.0485
      3 C         142.8068  137.7855  160.6203 C.3     1  UNL1        0.1436
      4 O         143.0588  138.2818  159.2274 O.3     1  UNL1       -0.3537
      5 C         142.3349  139.4938  158.7205 C.3     1  UNL1        0.1436
      6 C         141.3589  140.2096  159.6066 C.3     1  UNL1        0.0485
      7 N         140.5344  139.6277  162.3834 N.3     1  UNL1       -0.2710
      8 C         139.0792  139.9108  162.6119 C.3     1  UNL1        0.0897
      9 C         138.5068  139.8252  163.9957 C.3     1  UNL1        0.0899
     10 N         139.3896  139.4565  165.1510 N.3     1  UNL1       -0.2679
     11 C         140.8447  139.1733  164.9226 C.3     1  UNL1        0.0899
     12 C         141.4172  139.2590  163.5388 C.3     1  UNL1        0.0897
     13 C         138.8170  139.3709  166.5349 C.3     1  UNL1        0.0802
     14 C         137.7347  138.3779  166.8386 C.3     1  UNL1        0.0222
     15 C         139.3270  140.2783  167.6149 C.ar    1  UNL1       -0.0078
     16 C         139.9839  141.5777  167.2546 C.ar    1  UNL1       -0.0030
     17 C         140.4939  142.4852  168.3347 C.ar    1  UNL1       -0.0003
     18 C         140.3469  142.0932  169.7750 C.ar    1  UNL1       -0.0000
     19 C         139.6899  140.7937  170.1354 C.ar    1  UNL1       -0.0003
     20 C         139.1800  139.8862  169.0554 C.ar    1  UNL1       -0.0030
     21 C         140.1842  140.8956  160.9733 C.3     1  UNL1        0.1143
     22 C         139.9207  143.4684  160.7254 C.2     1  UNL1        0.2304
     23 O         138.5569  143.2716  160.1327 O.2     1  UNL1       -0.2745
     24 N         140.7343  142.2804  161.1458 N.am    1  UNL1       -0.2425
     25 C         142.0981  142.4772  161.7385 C.ar    1  UNL1        0.1373
     26 C         143.2941  142.6047  160.8423 C.ar    1  UNL1        0.0347
     27 C         144.6579  142.8015  161.4351 C.ar    1  UNL1        0.0044
     28 C         144.8256  142.8708  162.9240 C.ar    1  UNL1        0.0232
     29 C         143.6296  142.7432  163.8202 C.ar    1  UNL1        0.1540
     30 N         142.2658  142.5464  163.2275 N.ar    1  UNL1       -0.2263
     31 C         143.7973  142.8124  165.3093 C.3     1  UNL1        0.4349
     32 F         143.9650  142.8817  166.7983 F       1  UNL1       -0.1644
     33 F         145.2309  143.2154  165.1290 F       1  UNL1       -0.1644
     34 F         142.3637  142.4095  165.4895 F       1  UNL1       -0.1644
     35 C         139.6741  145.8907  161.6320 C.3     1  UNL1        0.0101
     36 C         140.4707  144.8532  160.8978 C.3     1  UNL1        0.0857
@<TRIPOS>BOND
     1    35    36    1
     2    36    22    1
     3    22    23    2
     4    22    24   am
     5    24    21    1
     6    21     1    1
     7     1     7    1
     8     7     8    1
     9     8     9    1
    10     9    10    1
    11    10    13    1
    12    13    14    1
    13    13    15    1
    14    15    16   ar
    15    16    17   ar
    16    17    18   ar
    17    18    19   ar
    18    19    20   ar
    19    10    11    1
    20    11    12    1
    21     1     2    1
    22     2     3    1
    23     3     4    1
    24     4     5    1
    25     5     6    1
    26    24    25    1
    27    25    26   ar
    28    26    27   ar
    29    27    28   ar
    30    28    29   ar
    31    29    31    1
    32    31    32    1
    33    31    33    1
    34    31    34    1
    35    29    30   ar
    36     6     1    1
    37    30    25   ar
    38    12     7    1
    39    20    15   ar
