@<TRIPOS>MOLECULE
*****
 26 29 0 0 0
SMALL
GASTEIGER

@<TRIPOS>ATOM
      1 O         137.9806  139.8991  170.2160 O.2     1  UNL1       -0.2699
      2 C         139.0393  140.2502  169.2132 C.2     1  UNL1        0.2494
      3 N         139.0279  139.6116  167.8559 N.am    1  UNL1       -0.2698
      4 C         137.9578  138.6221  167.5015 C.3     1  UNL1        0.1021
      5 C         137.9464  137.9836  166.1442 C.3     1  UNL1        0.0874
      6 C         139.0052  138.3347  165.1414 C.ar    1  UNL1        0.1415
      7 O         139.2496  137.8710  163.7359 O.2     1  UNL1       -0.4380
      8 C         140.4708  138.5740  163.2216 C.ar    1  UNL1        0.2471
      9 N         140.9811  139.4721  164.3093 N.ar    1  UNL1       -0.2100
     10 C         140.0753  139.3242  165.4957 C.ar    1  UNL1        0.1124
     11 C         140.0867  139.9626  166.8530 C.3     1  UNL1        0.1425
     12 C         140.1095  141.2397  169.5675 C.ar    1  UNL1        0.0567
     13 C         139.7671  142.6920  169.7208 C.ar    1  UNL1        0.0342
     14 C         140.8373  143.6815  170.0752 C.ar    1  UNL1        0.1411
     15 F         140.4950  145.1339  170.2284 F       1  UNL1       -0.2041
     16 C         142.2499  143.2187  170.2763 C.ar    1  UNL1        0.0410
     17 C         142.5923  141.7664  170.1230 C.ar    1  UNL1        0.0601
     18 CL        144.0048  141.3035  170.3241 Cl      1  UNL1       -0.0822
     19 C         141.5221  140.7769  169.7686 C.ar    1  UNL1        0.0161
     20 C         141.0755  138.4080  161.8589 C.ar    1  UNL1        0.1348
     21 C         140.2835  138.7705  160.6377 C.ar    1  UNL1        0.0262
     22 C         140.8882  138.6045  159.2751 C.ar    1  UNL1        0.0329
     23 C         142.2849  138.0761  159.1337 C.ar    1  UNL1        0.1592
     24 F         142.8896  137.9102  157.7710 F       1  UNL1       -0.2025
     25 C         143.0769  137.7137  160.3549 C.ar    1  UNL1        0.1285
     26 N         142.4722  137.8796  161.7175 N.ar    1  UNL1       -0.2368
@<TRIPOS>BOND
     1     1     2    2
     2     2    12    1
     3    12    13   ar
     4    13    14   ar
     5    14    15    1
     6    14    16   ar
     7    16    17   ar
     8    17    18    1
     9    17    19   ar
    10     2     3   am
    11     3     4    1
    12     4     5    1
    13     5     6    1
    14     6     7   ar
    15     7     8   ar
    16     8    20    1
    17    20    21   ar
    18    21    22   ar
    19    22    23   ar
    20    23    24    1
    21    23    25   ar
    22    25    26   ar
    23     8     9   ar
    24     9    10   ar
    25    10    11    1
    26    19    12   ar
    27    11     3    1
    28    10     6   ar
    29    26    20   ar
@<TRIPOS>MOLECULE
*****
 26 29 0 0 0
SMALL
GASTEIGER

@<TRIPOS>ATOM
      1 O         143.5793  138.2821  167.7400 O.2     1  UNL1       -0.2699
      2 C         142.8842  139.5194  167.2543 C.2     1  UNL1        0.2494
      3 N         142.9958  139.9262  165.8147 N.am    1  UNL1       -0.2698
      4 C         143.8024  139.0957  164.8610 C.3     1  UNL1        0.1021
      5 C         143.9140  139.5025  163.4216 C.3     1  UNL1        0.0874
      6 C         143.2189  140.7399  162.9359 C.ar    1  UNL1        0.1415
      7 O         143.1478  141.3860  161.5840 O.2     1  UNL1       -0.4380
      8 C         142.2972  142.6158  161.7022 C.ar    1  UNL1        0.2471
      9 N         141.8426  142.7297  163.1271 N.ar    1  UNL1       -0.2100
     10 C         142.4123  141.5704  163.8896 C.ar    1  UNL1        0.1124
     11 C         142.3007  141.1635  165.3290 C.3     1  UNL1        0.1425
     12 C         142.0776  140.3499  168.2080 C.ar    1  UNL1        0.0567
     13 C         142.6534  141.6143  168.7736 C.ar    1  UNL1        0.0342
     14 C         141.8467  142.4448  169.7273 C.ar    1  UNL1        0.1411
     15 F         142.4225  143.7091  170.2929 F       1  UNL1       -0.2041
     16 C         140.4643  142.0109  170.1154 C.ar    1  UNL1        0.0410
     17 C         139.8885  140.7466  169.5498 C.ar    1  UNL1        0.0601
     18 CL        138.5061  140.3128  169.9379 Cl      1  UNL1       -0.0822
     19 C         140.6951  139.9161  168.5961 C.ar    1  UNL1        0.0161
     20 C         141.9603  143.5651  160.5907 C.ar    1  UNL1        0.1348
     21 C         140.7658  144.4646  160.7089 C.ar    1  UNL1        0.0262
     22 C         140.4288  145.4139  159.5974 C.ar    1  UNL1        0.0329
     23 C         141.2864  145.4636  158.3678 C.ar    1  UNL1        0.1592
     24 F         140.9495  146.4128  157.2562 F       1  UNL1       -0.2025
     25 C         142.4809  144.5640  158.2496 C.ar    1  UNL1        0.1285
     26 N         142.8179  143.6148  159.3610 N.ar    1  UNL1       -0.2368
@<TRIPOS>BOND
     1     1     2    2
     2     2    12    1
     3    12    13   ar
     4    13    14   ar
     5    14    15    1
     6    14    16   ar
     7    16    17   ar
     8    17    18    1
     9    17    19   ar
    10     2     3   am
    11     3     4    1
    12     4     5    1
    13     5     6    1
    14     6     7   ar
    15     7     8   ar
    16     8    20    1
    17    20    21   ar
    18    21    22   ar
    19    22    23   ar
    20    23    24    1
    21    23    25   ar
    22    25    26   ar
    23     8     9   ar
    24     9    10   ar
    25    10    11    1
    26    19    12   ar
    27    11     3    1
    28    10     6   ar
    29    26    20   ar
@<TRIPOS>MOLECULE
*****
 26 29 0 0 0
SMALL
GASTEIGER

@<TRIPOS>ATOM
      1 O         137.9568  139.6760  169.9888 O.2     1  UNL1       -0.2699
      2 C         139.0317  140.0543  169.0134 C.2     1  UNL1        0.2494
      3 N         139.0467  139.4479  167.6414 N.am    1  UNL1       -0.2698
      4 C         137.9869  138.4633  167.2450 C.3     1  UNL1        0.1021
      5 C         138.0020  137.8570  165.8731 C.3     1  UNL1        0.0874
      6 C         139.0769  138.2353  164.8977 C.ar    1  UNL1        0.1415
      7 O         139.3478  137.8058  163.4862 O.2     1  UNL1       -0.4380
      8 C         140.5751  138.5250  163.0104 C.ar    1  UNL1        0.2471
      9 N         141.0627  139.3990  164.1277 N.ar    1  UNL1       -0.2100
     10 C         140.1367  139.2199  165.2941 C.ar    1  UNL1        0.1124
     11 C         140.1216  139.8263  166.6660 C.3     1  UNL1        0.1425
     12 C         140.0915  141.0390  169.4098 C.ar    1  UNL1        0.0567
     13 C         141.5115  140.5857  169.5770 C.ar    1  UNL1        0.0342
     14 C         142.5714  141.5704  169.9735 C.ar    1  UNL1        0.1411
     15 F         143.9914  141.1172  170.1407 F       1  UNL1       -0.2041
     16 C         142.2111  143.0083  170.2027 C.ar    1  UNL1        0.0410
     17 C         140.7911  143.4616  170.0355 C.ar    1  UNL1        0.0601
     18 CL        140.4308  144.8995  170.2647 Cl      1  UNL1       -0.0822
     19 C         139.7312  142.4770  169.6391 C.ar    1  UNL1        0.0161
     20 C         141.2045  138.3933  161.6551 C.ar    1  UNL1        0.1348
     21 C         142.6347  137.9585  161.5314 C.ar    1  UNL1        0.0262
     22 C         143.2641  137.8269  160.1762 C.ar    1  UNL1        0.0329
     23 C         142.4632  138.1300  158.9448 C.ar    1  UNL1        0.1592
     24 F         143.0925  137.9984  157.5895 F       1  UNL1       -0.2025
     25 C         141.0329  138.5648  159.0685 C.ar    1  UNL1        0.1285
     26 N         140.4036  138.6965  160.4236 N.ar    1  UNL1       -0.2368
@<TRIPOS>BOND
     1     1     2    2
     2     2    12    1
     3    12    13   ar
     4    13    14   ar
     5    14    15    1
     6    14    16   ar
     7    16    17   ar
     8    17    18    1
     9    17    19   ar
    10     2     3   am
    11     3     4    1
    12     4     5    1
    13     5     6    1
    14     6     7   ar
    15     7     8   ar
    16     8    20    1
    17    20    21   ar
    18    21    22   ar
    19    22    23   ar
    20    23    24    1
    21    23    25   ar
    22    25    26   ar
    23     8     9   ar
    24     9    10   ar
    25    10    11    1
    26    19    12   ar
    27    11     3    1
    28    10     6   ar
    29    26    20   ar
@<TRIPOS>MOLECULE
*****
 26 29 0 0 0
SMALL
GASTEIGER

@<TRIPOS>ATOM
      1 O         143.7027  138.1490  167.5431 O.2     1  UNL1       -0.2699
      2 C         142.9919  139.3873  167.0832 C.2     1  UNL1        0.2494
      3 N         143.0852  139.8167  165.6490 N.am    1  UNL1       -0.2698
      4 C         143.8893  139.0079  164.6747 C.3     1  UNL1        0.1021
      5 C         143.9826  139.4373  163.2406 C.3     1  UNL1        0.0874
      6 C         143.2718  140.6756  162.7807 C.ar    1  UNL1        0.1415
      7 O         143.1813  141.3414  161.4395 O.2     1  UNL1       -0.4380
      8 C         142.3212  142.5616  161.5850 C.ar    1  UNL1        0.2471
      9 N         141.8802  142.6500  163.0160 N.ar    1  UNL1       -0.2100
     10 C         142.4677  141.4844  163.7550 C.ar    1  UNL1        0.1124
     11 C         142.3744  141.0549  165.1891 C.3     1  UNL1        0.1425
     12 C         142.1878  140.1961  168.0575 C.ar    1  UNL1        0.0567
     13 C         140.7533  139.8447  168.3200 C.ar    1  UNL1        0.0342
     14 C         139.9492  140.6536  169.2943 C.ar    1  UNL1        0.1411
     15 F         138.5148  140.3022  169.5568 F       1  UNL1       -0.2041
     16 C         140.5796  141.8137  170.0060 C.ar    1  UNL1        0.0410
     17 C         142.0140  142.1651  169.7436 C.ar    1  UNL1        0.0601
     18 CL        142.6444  143.3252  170.4553 Cl      1  UNL1       -0.0822
     19 C         142.8181  141.3563  168.7693 C.ar    1  UNL1        0.0161
     20 C         141.9646  143.5245  160.4914 C.ar    1  UNL1        0.1348
     21 C         142.7007  143.4819  159.1851 C.ar    1  UNL1        0.0262
     22 C         142.3442  144.4447  158.0916 C.ar    1  UNL1        0.0329
     23 C         141.2517  145.4501  158.3044 C.ar    1  UNL1        0.1592
     24 F         140.8951  146.4130  157.2108 F       1  UNL1       -0.2025
     25 C         140.5156  145.4928  159.6106 C.ar    1  UNL1        0.1285
     26 N         140.8721  144.5300  160.7042 N.ar    1  UNL1       -0.2368
@<TRIPOS>BOND
     1     1     2    2
     2     2    12    1
     3    12    13   ar
     4    13    14   ar
     5    14    15    1
     6    14    16   ar
     7    16    17   ar
     8    17    18    1
     9    17    19   ar
    10     2     3   am
    11     3     4    1
    12     4     5    1
    13     5     6    1
    14     6     7   ar
    15     7     8   ar
    16     8    20    1
    17    20    21   ar
    18    21    22   ar
    19    22    23   ar
    20    23    24    1
    21    23    25   ar
    22    25    26   ar
    23     8     9   ar
    24     9    10   ar
    25    10    11    1
    26    19    12   ar
    27    11     3    1
    28    10     6   ar
    29    26    20   ar
@<TRIPOS>MOLECULE
*****
 26 29 0 0 0
SMALL
GASTEIGER

@<TRIPOS>ATOM
      1 O         138.0500  139.0815  168.4654 O.2     1  UNL1       -0.2699
      2 C         139.2549  139.7491  167.8717 C.2     1  UNL1        0.2494
      3 N         139.5068  139.6664  166.3953 N.am    1  UNL1       -0.2698
      4 C         138.5539  138.9162  165.5127 C.3     1  UNL1        0.1021
      5 C         138.8059  138.8336  164.0363 C.3     1  UNL1        0.0874
      6 C         140.0108  139.5012  163.4426 C.ar    1  UNL1        0.1415
      7 O         140.5163  139.5905  162.0331 O.2     1  UNL1       -0.4380
      8 C         141.7816  140.3959  162.0447 C.ar    1  UNL1        0.2471
      9 N         142.0581  140.8044  163.4612 N.ar    1  UNL1       -0.2100
     10 C         140.9637  140.2514  164.3252 C.ar    1  UNL1        0.1124
     11 C         140.7117  140.3340  165.8015 C.3     1  UNL1        0.1425
     12 C         140.2078  140.4993  168.7543 C.ar    1  UNL1        0.0567
     13 C         141.3438  139.7772  169.4162 C.ar    1  UNL1        0.0342
     14 C         142.2968  140.5275  170.2988 C.ar    1  UNL1        0.1411
     15 F         143.4328  139.8055  170.9607 F       1  UNL1       -0.2041
     16 C         142.1137  141.9998  170.5196 C.ar    1  UNL1        0.0410
     17 C         140.9777  142.7219  169.8577 C.ar    1  UNL1        0.0601
     18 CL        140.7946  144.1942  170.0784 Cl      1  UNL1       -0.0822
     19 C         140.0248  141.9717  168.9751 C.ar    1  UNL1        0.0161
     20 C         142.6228  140.7337  160.8494 C.ar    1  UNL1        0.1348
     21 C         142.7470  139.7554  159.7191 C.ar    1  UNL1        0.0262
     22 C         143.5881  140.0931  158.5240 C.ar    1  UNL1        0.0329
     23 C         144.3050  141.4090  158.4591 C.ar    1  UNL1        0.1592
     24 F         145.1462  141.7468  157.2639 F       1  UNL1       -0.2025
     25 C         144.1809  142.3873  159.5895 C.ar    1  UNL1        0.1285
     26 N         143.3397  142.0496  160.7846 N.ar    1  UNL1       -0.2368
@<TRIPOS>BOND
     1     1     2    2
     2     2    12    1
     3    12    13   ar
     4    13    14   ar
     5    14    15    1
     6    14    16   ar
     7    16    17   ar
     8    17    18    1
     9    17    19   ar
    10     2     3   am
    11     3     4    1
    12     4     5    1
    13     5     6    1
    14     6     7   ar
    15     7     8   ar
    16     8    20    1
    17    20    21   ar
    18    21    22   ar
    19    22    23   ar
    20    23    24    1
    21    23    25   ar
    22    25    26   ar
    23     8     9   ar
    24     9    10   ar
    25    10    11    1
    26    19    12   ar
    27    11     3    1
    28    10     6   ar
    29    26    20   ar
@<TRIPOS>MOLECULE
*****
 26 29 0 0 0
SMALL
GASTEIGER

@<TRIPOS>ATOM
      1 O         142.8530  141.2150  167.2609 O.2     1  UNL1       -0.2699
      2 C         142.1378  141.0581  165.9518 C.2     1  UNL1        0.2494
      3 N         142.3486  142.0617  164.8570 N.am    1  UNL1       -0.2698
      4 C         143.2747  143.2220  165.0714 C.3     1  UNL1        0.1021
      5 C         143.4855  144.2255  163.9767 C.3     1  UNL1        0.0874
      6 C         142.7703  144.0687  162.6675 C.ar    1  UNL1        0.1415
      7 O         142.7795  144.8922  161.4138 O.2     1  UNL1       -0.4380
      8 C         141.8592  144.2408  160.4246 C.ar    1  UNL1        0.2471
      9 N         141.2811  143.0147  161.0669 N.ar    1  UNL1       -0.2100
     10 C         141.8442  142.9084  162.4531 C.ar    1  UNL1        0.1124
     11 C         141.6334  141.9049  163.5479 C.3     1  UNL1        0.1425
     12 C         141.2117  139.8978  165.7374 C.ar    1  UNL1        0.0567
     13 C         141.6338  138.7524  164.8657 C.ar    1  UNL1        0.0342
     14 C         140.7077  137.5920  164.6513 C.ar    1  UNL1        0.1411
     15 F         141.1298  136.4467  163.7795 F       1  UNL1       -0.2041
     16 C         139.3595  137.5771  165.3086 C.ar    1  UNL1        0.0410
     17 C         138.9374  138.7225  166.1803 C.ar    1  UNL1        0.0601
     18 CL        137.5892  138.7075  166.8377 Cl      1  UNL1       -0.0822
     19 C         139.8634  139.8828  166.3947 C.ar    1  UNL1        0.0161
     20 C         141.5679  144.7296  159.0366 C.ar    1  UNL1        0.1348
     21 C         142.4882  144.3726  157.9072 C.ar    1  UNL1        0.0262
     22 C         142.1970  144.8614  156.5193 C.ar    1  UNL1        0.0329
     23 C         140.9856  145.7072  156.2609 C.ar    1  UNL1        0.1592
     24 F         140.6943  146.1960  154.8729 F       1  UNL1       -0.2025
     25 C         140.0653  146.0642  157.3903 C.ar    1  UNL1        0.1285
     26 N         140.3565  145.5755  158.7782 N.ar    1  UNL1       -0.2368
@<TRIPOS>BOND
     1     1     2    2
     2     2    12    1
     3    12    13   ar
     4    13    14   ar
     5    14    15    1
     6    14    16   ar
     7    16    17   ar
     8    17    18    1
     9    17    19   ar
    10     2     3   am
    11     3     4    1
    12     4     5    1
    13     5     6    1
    14     6     7   ar
    15     7     8   ar
    16     8    20    1
    17    20    21   ar
    18    21    22   ar
    19    22    23   ar
    20    23    24    1
    21    23    25   ar
    22    25    26   ar
    23     8     9   ar
    24     9    10   ar
    25    10    11    1
    26    19    12   ar
    27    11     3    1
    28    10     6   ar
    29    26    20   ar
@<TRIPOS>MOLECULE
*****
 26 29 0 0 0
SMALL
GASTEIGER

@<TRIPOS>ATOM
      1 O         138.4229  139.1040  168.2271 O.2     1  UNL1       -0.2699
      2 C         139.2883  140.1847  167.6499 C.2     1  UNL1        0.2494
      3 N         139.2103  140.5067  166.1869 N.am    1  UNL1       -0.2698
      4 C         138.2670  139.7481  165.3012 C.3     1  UNL1        0.1021
      5 C         138.1891  140.0701  163.8383 C.3     1  UNL1        0.0874
      6 C         139.0545  141.1508  163.2611 C.ar    1  UNL1        0.1415
      7 O         139.1954  141.6866  161.8671 O.2     1  UNL1       -0.4380
      8 C         140.2258  142.7764  161.8913 C.ar    1  UNL1        0.2471
      9 N         140.7218  142.9141  163.3003 N.ar    1  UNL1       -0.2100
     10 C         139.9979  141.9094  164.1468 C.ar    1  UNL1        0.1124
     11 C         140.0758  141.5874  165.6097 C.3     1  UNL1        0.1425
     12 C         140.2316  140.9433  168.5357 C.ar    1  UNL1        0.0567
     13 C         139.9837  142.3935  168.8277 C.ar    1  UNL1        0.0342
     14 C         140.9271  143.1522  169.7135 C.ar    1  UNL1        0.1411
     15 F         140.6791  144.6024  170.0056 F       1  UNL1       -0.2041
     16 C         142.1184  142.4606  170.3071 C.ar    1  UNL1        0.0410
     17 C         142.3663  141.0103  170.0151 C.ar    1  UNL1        0.0601
     18 CL        143.5576  140.3187  170.6087 Cl      1  UNL1       -0.0822
     19 C         141.4230  140.2517  169.1293 C.ar    1  UNL1        0.0161
     20 C         140.6805  143.5863  160.7134 C.ar    1  UNL1        0.1348
     21 C         141.8938  143.1662  159.9379 C.ar    1  UNL1        0.0262
     22 C         142.3485  143.9761  158.7601 C.ar    1  UNL1        0.0329
     23 C         141.5899  145.2059  158.3578 C.ar    1  UNL1        0.1592
     24 F         142.0446  146.0159  157.1799 F       1  UNL1       -0.2025
     25 C         140.3766  145.6260  159.1333 C.ar    1  UNL1        0.1285
     26 N         139.9219  144.8161  160.3111 N.ar    1  UNL1       -0.2368
@<TRIPOS>BOND
     1     1     2    2
     2     2    12    1
     3    12    13   ar
     4    13    14   ar
     5    14    15    1
     6    14    16   ar
     7    16    17   ar
     8    17    18    1
     9    17    19   ar
    10     2     3   am
    11     3     4    1
    12     4     5    1
    13     5     6    1
    14     6     7   ar
    15     7     8   ar
    16     8    20    1
    17    20    21   ar
    18    21    22   ar
    19    22    23   ar
    20    23    24    1
    21    23    25   ar
    22    25    26   ar
    23     8     9   ar
    24     9    10   ar
    25    10    11    1
    26    19    12   ar
    27    11     3    1
    28    10     6   ar
    29    26    20   ar
@<TRIPOS>MOLECULE
*****
 26 29 0 0 0
SMALL
GASTEIGER

@<TRIPOS>ATOM
      1 O         138.4790  144.9428  165.4475 O.2     1  UNL1       -0.2699
      2 C         139.3886  143.9448  164.7943 C.2     1  UNL1        0.2494
      3 N         139.9728  144.2343  163.4433 N.am    1  UNL1       -0.2698
      4 C         139.6473  145.5216  162.7456 C.3     1  UNL1        0.1021
      5 C         140.2315  145.8109  161.3947 C.3     1  UNL1        0.0874
      6 C         141.1411  144.8130  160.7416 C.ar    1  UNL1        0.1415
      7 O         141.8608  144.8218  159.4254 O.2     1  UNL1       -0.4380
      8 C         142.6310  143.5398  159.3098 C.ar    1  UNL1        0.2471
      9 N         142.3874  142.7388  160.5544 N.ar    1  UNL1       -0.2100
     10 C         141.4666  143.5257  161.4393 C.ar    1  UNL1        0.1124
     11 C         140.8824  143.2363  162.7902 C.3     1  UNL1        0.1425
     12 C         139.7141  142.6575  165.4920 C.ar    1  UNL1        0.0567
     13 C         140.9185  142.5704  166.3819 C.ar    1  UNL1        0.0342
     14 C         141.2439  141.2830  167.0796 C.ar    1  UNL1        0.1411
     15 F         142.4483  141.1958  167.9695 F       1  UNL1       -0.2041
     16 C         140.3650  140.0828  166.8874 C.ar    1  UNL1        0.0410
     17 C         139.1606  140.1699  165.9976 C.ar    1  UNL1        0.0601
     18 CL        138.2816  138.9697  165.8054 Cl      1  UNL1       -0.0822
     19 C         138.8351  141.4572  165.2999 C.ar    1  UNL1        0.0161
     20 C         143.4935  143.1307  158.1527 C.ar    1  UNL1        0.1348
     21 C         144.8448  142.5284  158.4006 C.ar    1  UNL1        0.0262
     22 C         145.7072  142.1193  157.2436 C.ar    1  UNL1        0.0329
     23 C         145.2185  142.3125  155.8387 C.ar    1  UNL1        0.1592
     24 F         146.0810  141.9033  154.6816 F       1  UNL1       -0.2025
     25 C         143.8673  142.9147  155.5908 C.ar    1  UNL1        0.1285
     26 N         143.0048  143.3239  156.7478 N.ar    1  UNL1       -0.2368
@<TRIPOS>BOND
     1     1     2    2
     2     2    12    1
     3    12    13   ar
     4    13    14   ar
     5    14    15    1
     6    14    16   ar
     7    16    17   ar
     8    17    18    1
     9    17    19   ar
    10     2     3   am
    11     3     4    1
    12     4     5    1
    13     5     6    1
    14     6     7   ar
    15     7     8   ar
    16     8    20    1
    17    20    21   ar
    18    21    22   ar
    19    22    23   ar
    20    23    24    1
    21    23    25   ar
    22    25    26   ar
    23     8     9   ar
    24     9    10   ar
    25    10    11    1
    26    19    12   ar
    27    11     3    1
    28    10     6   ar
    29    26    20   ar
@<TRIPOS>MOLECULE
*****
 26 29 0 0 0
SMALL
GASTEIGER

@<TRIPOS>ATOM
      1 O         140.5636  142.8902  166.6224 O.2     1  UNL1       -0.2699
      2 C         141.1714  142.6937  165.2652 C.2     1  UNL1        0.2494
      3 N         140.7263  143.5457  164.1136 N.am    1  UNL1       -0.2698
      4 C         139.6734  144.5940  164.3192 C.3     1  UNL1        0.1021
      5 C         139.2282  145.4459  163.1677 C.3     1  UNL1        0.0874
      6 C         139.8360  145.2494  161.8105 C.ar    1  UNL1        0.1415
      7 O         139.5999  145.9333  160.4964 O.2     1  UNL1       -0.4380
      8 C         140.5070  145.3076  159.4787 C.ar    1  UNL1        0.2471
      9 N         141.3036  144.2370  160.1638 N.ar    1  UNL1       -0.2100
     10 C         140.8889  144.2010  161.6048 C.ar    1  UNL1        0.1124
     11 C         141.3341  143.3492  162.7564 C.3     1  UNL1        0.1425
     12 C         142.2243  141.6454  165.0596 C.ar    1  UNL1        0.0567
     13 C         141.9220  140.2085  165.3661 C.ar    1  UNL1        0.0342
     14 C         142.9750  139.1602  165.1605 C.ar    1  UNL1        0.1411
     15 F         142.6727  137.7233  165.4670 F       1  UNL1       -0.2041
     16 C         144.3302  139.5487  164.6483 C.ar    1  UNL1        0.0410
     17 C         144.6326  140.9856  164.3418 C.ar    1  UNL1        0.0601
     18 CL        145.9878  141.3741  163.8296 Cl      1  UNL1       -0.0822
     19 C         143.5796  142.0339  164.5474 C.ar    1  UNL1        0.0161
     20 C         140.6009  145.6860  158.0302 C.ar    1  UNL1        0.1348
     21 C         141.6983  145.1217  157.1773 C.ar    1  UNL1        0.0262
     22 C         141.7922  145.5001  155.7289 C.ar    1  UNL1        0.0329
     23 C         140.7888  146.4426  155.1334 C.ar    1  UNL1        0.1592
     24 F         140.8828  146.8210  153.6849 F       1  UNL1       -0.2025
     25 C         139.6915  147.0069  155.9863 C.ar    1  UNL1        0.1285
     26 N         139.5975  146.6285  157.4347 N.ar    1  UNL1       -0.2368
@<TRIPOS>BOND
     1     1     2    2
     2     2    12    1
     3    12    13   ar
     4    13    14   ar
     5    14    15    1
     6    14    16   ar
     7    16    17   ar
     8    17    18    1
     9    17    19   ar
    10     2     3   am
    11     3     4    1
    12     4     5    1
    13     5     6    1
    14     6     7   ar
    15     7     8   ar
    16     8    20    1
    17    20    21   ar
    18    21    22   ar
    19    22    23   ar
    20    23    24    1
    21    23    25   ar
    22    25    26   ar
    23     8     9   ar
    24     9    10   ar
    25    10    11    1
    26    19    12   ar
    27    11     3    1
    28    10     6   ar
    29    26    20   ar
