@<TRIPOS>MOLECULE
*****
 39 44 0 0 0
SMALL
GASTEIGER

@<TRIPOS>ATOM
      1 C         138.9618  142.1508  157.5559 C.3     1  UNL1        0.0294
      2 C         140.3964  142.4649  157.2503 C.3     1  UNL1        0.0666
      3 S         141.0219  143.7161  157.7916 S.3     1  UNL1       -0.0756
      4 C         141.7787  144.0503  161.5839 C.ar    1  UNL1        0.1669
      5 N         140.3973  144.6306  161.5117 N.ar    1  UNL1       -0.1282
      6 N         139.9457  144.5760  160.0824 N.ar    1  UNL1       -0.1221
      7 C         141.0480  143.9620  159.2711 C.ar    1  UNL1        0.1932
      8 N         142.1807  143.6372  160.1991 N.ar    1  UNL1       -0.2884
      9 C         143.4865  143.0093  159.8106 C.3     1  UNL1        0.1340
     10 C         143.3375  138.5137  165.3477 C.3     1  UNL1        0.0521
     11 C         143.1560  139.8624  164.7166 C.ar    1  UNL1        0.0593
     12 C         142.3231  140.0045  163.4772 C.ar    1  UNL1        0.0147
     13 C         142.1416  141.3531  162.8461 C.ar    1  UNL1        0.0028
     14 C         142.7931  142.5596  163.4543 C.ar    1  UNL1        0.0206
     15 C         142.6116  143.9082  162.8232 C.ar    1  UNL1        0.0374
     16 C         143.2631  145.1146  163.4314 C.ar    1  UNL1        0.0031
     17 C         144.0961  144.9725  164.6708 C.ar    1  UNL1        0.0016
     18 C         144.2775  143.6240  165.3019 C.ar    1  UNL1        0.0191
     19 C         143.6261  142.4175  164.6937 C.ar    1  UNL1        0.0810
     20 N         143.8076  141.0689  165.3248 N.ar    1  UNL1       -0.2497
     21 C         138.5667  140.7591  157.9523 C.3     1  UNL1        0.0730
     22 N         138.7126  140.3153  159.3776 N.3     1  UNL1       -0.2720
     23 C         139.1242  138.8864  159.5754 C.3     1  UNL1        0.0768
     24 C         139.3525  138.1483  160.8612 C.3     1  UNL1        0.0433
     25 C         139.2255  138.6567  162.2666 C.ar    1  UNL1       -0.0247
     26 C         139.5452  137.5862  163.2676 C.ar    1  UNL1       -0.0045
     27 C         139.4782  137.8878  164.7354 C.ar    1  UNL1        0.0011
     28 C         139.0915  139.2599  165.2024 C.ar    1  UNL1        0.0170
     29 C         138.7719  140.3304  164.2014 C.ar    1  UNL1       -0.0030
     30 C         138.8389  140.0288  162.7335 C.ar    1  UNL1       -0.0246
     31 C         138.4837  141.2313  161.9102 C.3     1  UNL1        0.0433
     32 C         138.4276  141.3587  160.4167 C.3     1  UNL1        0.0768
     33 C         139.0246  139.5615  166.6702 C.ar    1  UNL1        0.0791
     34 C         139.8749  140.5541  167.4060 C.ar    1  UNL1        0.0352
     35 C         139.4713  140.5295  168.8505 C.ar    1  UNL1        0.0804
     36 C         140.0636  141.3660  169.9458 C.3     1  UNL1        0.0540
     37 N         138.3716  139.5216  169.0074 N.ar    1  UNL1       -0.1736
     38 N         138.0954  138.9232  167.6599 N.ar    1  UNL1       -0.2492
     39 C         137.0702  137.8714  167.3556 C.3     1  UNL1        0.1537
@<TRIPOS>BOND
     1    10    11    1
     2    11    12   ar
     3    12    13   ar
     4    13    14   ar
     5    14    15   ar
     6    15     4    1
     7     4     5   ar
     8     5     6   ar
     9     6     7   ar
    10     7     3    1
    11     3     2    1
    12     2     1    1
    13     1    21    1
    14    21    22    1
    15    22    23    1
    16    23    24    1
    17    24    25    1
    18    25    26   ar
    19    26    27   ar
    20    27    28   ar
    21    28    33    1
    22    33    34   ar
    23    34    35   ar
    24    35    36    1
    25    35    37   ar
    26    37    38   ar
    27    38    39    1
    28    28    29   ar
    29    29    30   ar
    30    30    31    1
    31    31    32    1
    32     7     8   ar
    33     8     9    1
    34    15    16   ar
    35    16    17   ar
    36    17    18   ar
    37    18    19   ar
    38    19    20   ar
    39    20    11   ar
    40    19    14   ar
    41     8     4   ar
    42    32    22    1
    43    30    25   ar
    44    38    33   ar
@<TRIPOS>MOLECULE
*****
 39 44 0 0 0
SMALL
GASTEIGER

@<TRIPOS>ATOM
      1 C         140.8294  145.3826  159.5253 C.3     1  UNL1        0.0294
      2 C         139.9819  144.6864  158.5020 C.3     1  UNL1        0.0666
      3 S         140.0353  143.1928  158.3747 S.3     1  UNL1       -0.0756
      4 C         140.4699  141.1742  161.6613 C.ar    1  UNL1        0.1669
      5 N         141.8050  140.9610  161.0115 N.ar    1  UNL1       -0.1282
      6 N         141.8046  141.6912  159.7013 N.ar    1  UNL1       -0.1221
      7 C         140.4694  142.3557  159.5413 C.ar    1  UNL1        0.1932
      8 N         139.6445  142.0361  160.7526 N.ar    1  UNL1       -0.2884
      9 C         138.2406  142.4976  161.0101 C.3     1  UNL1        0.1340
     10 C         144.0264  137.9187  166.5606 C.3     1  UNL1        0.0521
     11 C         143.0289  138.5946  165.6672 C.ar    1  UNL1        0.0593
     12 C         143.4625  139.1465  164.3415 C.ar    1  UNL1        0.0147
     13 C         142.4649  139.8224  163.4481 C.ar    1  UNL1        0.0028
     14 C         141.0339  139.9464  163.8804 C.ar    1  UNL1        0.0206
     15 C         140.0364  140.6223  162.9869 C.ar    1  UNL1        0.0374
     16 C         138.6055  140.7463  163.4193 C.ar    1  UNL1        0.0031
     17 C         138.1720  140.1944  164.7450 C.ar    1  UNL1        0.0016
     18 C         139.1694  139.5185  165.6383 C.ar    1  UNL1        0.0191
     19 C         140.6004  139.3945  165.2061 C.ar    1  UNL1        0.0810
     20 N         141.5979  138.7186  166.0995 N.ar    1  UNL1       -0.2497
     21 C         140.2492  145.7412  160.8612 C.3     1  UNL1        0.0730
     22 N         140.7002  145.0155  162.0941 N.3     1  UNL1       -0.2720
     23 C         142.1475  144.6226  162.1251 C.3     1  UNL1        0.0768
     24 C         142.8964  143.8958  163.2026 C.3     1  UNL1        0.0433
     25 C         142.3830  143.3824  164.5150 C.ar    1  UNL1       -0.0247
     26 C         143.4682  142.7106  165.3031 C.ar    1  UNL1       -0.0045
     27 C         143.1643  142.1253  166.6504 C.ar    1  UNL1        0.0011
     28 C         141.7751  142.2119  167.2097 C.ar    1  UNL1        0.0170
     29 C         140.6899  142.8837  166.4216 C.ar    1  UNL1       -0.0030
     30 C         140.9938  143.4689  165.0743 C.ar    1  UNL1       -0.0246
     31 C         139.7750  144.0903  164.4592 C.3     1  UNL1        0.0433
     32 C         139.6444  144.7786  163.1328 C.3     1  UNL1        0.0768
     33 C         141.4712  141.6267  168.5569 C.ar    1  UNL1        0.0791
     34 C         140.3103  140.7373  168.8903 C.ar    1  UNL1        0.0352
     35 C         140.3964  140.3891  170.3468 C.ar    1  UNL1        0.0804
     36 C         139.4368  139.5193  171.1036 C.3     1  UNL1        0.0540
     37 N         141.6106  141.0632  170.9135 N.ar    1  UNL1       -0.1736
     38 N         142.2749  141.8281  169.8074 N.ar    1  UNL1       -0.2492
     39 C         143.5236  142.6501  169.9301 C.3     1  UNL1        0.1537
@<TRIPOS>BOND
     1    10    11    1
     2    11    12   ar
     3    12    13   ar
     4    13    14   ar
     5    14    15   ar
     6    15     4    1
     7     4     5   ar
     8     5     6   ar
     9     6     7   ar
    10     7     3    1
    11     3     2    1
    12     2     1    1
    13     1    21    1
    14    21    22    1
    15    22    23    1
    16    23    24    1
    17    24    25    1
    18    25    26   ar
    19    26    27   ar
    20    27    28   ar
    21    28    33    1
    22    33    34   ar
    23    34    35   ar
    24    35    36    1
    25    35    37   ar
    26    37    38   ar
    27    38    39    1
    28    28    29   ar
    29    29    30   ar
    30    30    31    1
    31    31    32    1
    32     7     8   ar
    33     8     9    1
    34    15    16   ar
    35    16    17   ar
    36    17    18   ar
    37    18    19   ar
    38    19    20   ar
    39    20    11   ar
    40    19    14   ar
    41     8     4   ar
    42    32    22    1
    43    30    25   ar
    44    38    33   ar
@<TRIPOS>MOLECULE
*****
 39 44 0 0 0
SMALL
GASTEIGER

@<TRIPOS>ATOM
      1 C         144.0510  142.6889  159.4872 C.3     1  UNL1        0.0294
      2 C         143.6961  142.3189  158.0774 C.3     1  UNL1        0.0666
      3 S         143.0382  141.0018  157.7907 S.3     1  UNL1       -0.0756
      4 C         141.8454  138.8820  160.8155 C.ar    1  UNL1        0.1669
      5 N         143.0787  138.1332  160.4051 N.ar    1  UNL1       -0.1282
      6 N         143.6756  138.8362  159.2221 N.ar    1  UNL1       -0.1221
      7 C         142.8112  140.0194  158.9013 C.ar    1  UNL1        0.1932
      8 N         141.6802  140.0477  159.8861 N.ar    1  UNL1       -0.2884
      9 C         140.5774  141.0635  159.9332 C.3     1  UNL1        0.1340
     10 C         142.9037  138.9633  167.6070 C.3     1  UNL1        0.0521
     11 C         142.4120  138.8543  166.1940 C.ar    1  UNL1        0.0593
     12 C         143.3205  139.2090  165.0543 C.ar    1  UNL1        0.0147
     13 C         142.8288  139.1000  163.6414 C.ar    1  UNL1        0.0028
     14 C         141.4287  138.6363  163.3681 C.ar    1  UNL1        0.0206
     15 C         140.9370  138.5274  161.9552 C.ar    1  UNL1        0.0374
     16 C         139.5369  138.0637  161.6820 C.ar    1  UNL1        0.0031
     17 C         138.6284  137.7091  162.8217 C.ar    1  UNL1        0.0016
     18 C         139.1200  137.8180  164.2346 C.ar    1  UNL1        0.0191
     19 C         140.5202  138.2817  164.5078 C.ar    1  UNL1        0.0810
     20 N         141.0118  138.3906  165.9208 N.ar    1  UNL1       -0.2497
     21 C         143.1369  143.5721  160.2836 C.3     1  UNL1        0.0730
     22 N         142.9201  143.3050  161.7436 N.3     1  UNL1       -0.2720
     23 C         144.1401  143.4022  162.6111 C.3     1  UNL1        0.0768
     24 C         144.2532  143.1944  164.0924 C.3     1  UNL1        0.0433
     25 C         143.1746  142.8381  165.0718 C.ar    1  UNL1       -0.0247
     26 C         143.7161  142.7250  166.4662 C.ar    1  UNL1       -0.0045
     27 C         142.7993  142.3754  167.6007 C.ar    1  UNL1        0.0011
     28 C         141.3410  142.1388  167.3411 C.ar    1  UNL1        0.0170
     29 C         140.7995  142.2519  165.9467 C.ar    1  UNL1       -0.0030
     30 C         141.7163  142.6015  164.8122 C.ar    1  UNL1       -0.0246
     31 C         140.9765  142.6629  163.5087 C.3     1  UNL1        0.0433
     32 C         141.5124  142.9759  162.1431 C.3     1  UNL1        0.0768
     33 C         140.4241  141.7892  168.4756 C.ar    1  UNL1        0.0791
     34 C         139.6285  140.5246  168.6087 C.ar    1  UNL1        0.0352
     35 C         138.8547  140.5967  169.8916 C.ar    1  UNL1        0.0804
     36 C         137.9264  139.5443  170.4216 C.3     1  UNL1        0.0540
     37 N         139.1720  141.9059  170.5514 N.ar    1  UNL1       -0.1736
     38 N         140.1420  142.6429  169.6763 N.ar    1  UNL1       -0.2492
     39 C         140.7271  143.9961  169.9533 C.3     1  UNL1        0.1537
@<TRIPOS>BOND
     1    10    11    1
     2    11    12   ar
     3    12    13   ar
     4    13    14   ar
     5    14    15   ar
     6    15     4    1
     7     4     5   ar
     8     5     6   ar
     9     6     7   ar
    10     7     3    1
    11     3     2    1
    12     2     1    1
    13     1    21    1
    14    21    22    1
    15    22    23    1
    16    23    24    1
    17    24    25    1
    18    25    26   ar
    19    26    27   ar
    20    27    28   ar
    21    28    33    1
    22    33    34   ar
    23    34    35   ar
    24    35    36    1
    25    35    37   ar
    26    37    38   ar
    27    38    39    1
    28    28    29   ar
    29    29    30   ar
    30    30    31    1
    31    31    32    1
    32     7     8   ar
    33     8     9    1
    34    15    16   ar
    35    16    17   ar
    36    17    18   ar
    37    18    19   ar
    38    19    20   ar
    39    20    11   ar
    40    19    14   ar
    41     8     4   ar
    42    32    22    1
    43    30    25   ar
    44    38    33   ar
@<TRIPOS>MOLECULE
*****
 39 44 0 0 0
SMALL
GASTEIGER

@<TRIPOS>ATOM
      1 C         142.5744  144.3988  157.5283 C.3     1  UNL1        0.0294
      2 C         143.1410  143.0747  157.1087 C.3     1  UNL1        0.0666
      3 S         144.3425  142.5164  157.8121 S.3     1  UNL1       -0.0756
      4 C         143.9040  140.0855  160.8062 C.ar    1  UNL1        0.1669
      5 N         143.9924  139.1213  159.6604 N.ar    1  UNL1       -0.1282
      6 N         144.1674  139.9146  158.3995 N.ar    1  UNL1       -0.1221
      7 C         144.1872  141.3690  158.7658 C.ar    1  UNL1        0.1932
      8 N         144.0244  141.4747  160.2531 N.ar    1  UNL1       -0.2884
      9 C         143.9884  142.7462  161.0481 C.3     1  UNL1        0.1340
     10 C         138.7166  136.9608  164.0584 C.3     1  UNL1        0.0521
     11 C         139.9691  137.6516  163.6065 C.ar    1  UNL1        0.0593
     12 C         140.1466  138.0131  162.1616 C.ar    1  UNL1        0.0147
     13 C         141.3991  138.7039  161.7098 C.ar    1  UNL1        0.0028
     14 C         142.4740  139.0332  162.7029 C.ar    1  UNL1        0.0206
     15 C         143.7264  139.7241  162.2510 C.ar    1  UNL1        0.0374
     16 C         144.8013  140.0533  163.2441 C.ar    1  UNL1        0.0031
     17 C         144.6237  139.6918  164.6890 C.ar    1  UNL1        0.0016
     18 C         143.3713  139.0011  165.1408 C.ar    1  UNL1        0.0191
     19 C         142.2964  138.6717  164.1478 C.ar    1  UNL1        0.0810
     20 N         141.0440  137.9809  164.5997 N.ar    1  UNL1       -0.2497
     21 C         141.1699  144.4827  158.0480 C.3     1  UNL1        0.0730
     22 N         140.8728  144.1094  159.4701 N.3     1  UNL1       -0.2720
     23 C         140.8915  145.2391  160.4569 C.3     1  UNL1        0.0768
     24 C         140.6384  145.1942  161.9348 C.3     1  UNL1        0.0433
     25 C         140.3041  144.0087  162.7907 C.ar    1  UNL1       -0.0247
     26 C         140.1287  144.4022  164.2276 C.ar    1  UNL1       -0.0045
     27 C         139.7896  143.3623  165.2540 C.ar    1  UNL1        0.0011
     28 C         139.6258  141.9288  164.8437 C.ar    1  UNL1        0.0170
     29 C         139.8012  141.5353  163.4068 C.ar    1  UNL1       -0.0030
     30 C         140.1403  142.5752  162.3804 C.ar    1  UNL1       -0.0246
     31 C         140.2704  141.9732  161.0127 C.3     1  UNL1        0.0433
     32 C         140.5964  142.6561  159.7175 C.3     1  UNL1        0.0768
     33 C         139.2867  140.8889  165.8701 C.ar    1  UNL1        0.0791
     34 C         138.1406  139.9237  165.8020 C.ar    1  UNL1        0.0352
     35 C         138.1798  139.0699  167.0346 C.ar    1  UNL1        0.0804
     36 C         137.2174  137.9714  167.3772 C.3     1  UNL1        0.0540
     37 N         139.3501  139.5073  167.8645 N.ar    1  UNL1       -0.1736
     38 N         140.0344  140.6316  167.1449 N.ar    1  UNL1       -0.2492
     39 C         141.2522  141.3690  167.6170 C.3     1  UNL1        0.1537
@<TRIPOS>BOND
     1    10    11    1
     2    11    12   ar
     3    12    13   ar
     4    13    14   ar
     5    14    15   ar
     6    15     4    1
     7     4     5   ar
     8     5     6   ar
     9     6     7   ar
    10     7     3    1
    11     3     2    1
    12     2     1    1
    13     1    21    1
    14    21    22    1
    15    22    23    1
    16    23    24    1
    17    24    25    1
    18    25    26   ar
    19    26    27   ar
    20    27    28   ar
    21    28    33    1
    22    33    34   ar
    23    34    35   ar
    24    35    36    1
    25    35    37   ar
    26    37    38   ar
    27    38    39    1
    28    28    29   ar
    29    29    30   ar
    30    30    31    1
    31    31    32    1
    32     7     8   ar
    33     8     9    1
    34    15    16   ar
    35    16    17   ar
    36    17    18   ar
    37    18    19   ar
    38    19    20   ar
    39    20    11   ar
    40    19    14   ar
    41     8     4   ar
    42    32    22    1
    43    30    25   ar
    44    38    33   ar
@<TRIPOS>MOLECULE
*****
 39 44 0 0 0
SMALL
GASTEIGER

@<TRIPOS>ATOM
      1 C         140.8337  137.8906  157.3208 C.3     1  UNL1        0.0294
      2 C         142.0507  138.5706  156.7669 C.3     1  UNL1        0.0666
      3 S         143.2654  138.7523  157.6279 S.3     1  UNL1       -0.0756
      4 C         143.6748  141.3480  160.4845 C.ar    1  UNL1        0.1669
      5 N         143.4309  142.2470  159.3087 N.ar    1  UNL1       -0.1282
      6 N         143.2479  141.3840  158.0956 N.ar    1  UNL1       -0.1221
      7 C         143.3786  139.9517  158.5215 C.ar    1  UNL1        0.1932
      8 N         143.6424  139.9295  159.9979 N.ar    1  UNL1       -0.2884
      9 C         143.8394  138.7039  160.8401 C.3     1  UNL1        0.1340
     10 C         139.5079  144.4645  164.9762 C.3     1  UNL1        0.0521
     11 C         140.6083  143.7959  164.2067 C.ar    1  UNL1        0.0593
     12 C         140.3734  143.3539  162.7927 C.ar    1  UNL1        0.0147
     13 C         141.4739  142.6853  162.0233 C.ar    1  UNL1        0.0028
     14 C         142.8092  142.4586  162.6679 C.ar    1  UNL1        0.0206
     15 C         143.9096  141.7900  161.8985 C.ar    1  UNL1        0.0374
     16 C         145.2449  141.5634  162.5431 C.ar    1  UNL1        0.0031
     17 C         145.4798  142.0054  163.9572 C.ar    1  UNL1        0.0016
     18 C         144.3795  142.6740  164.7265 C.ar    1  UNL1        0.0191
     19 C         143.0441  142.9006  164.0820 C.ar    1  UNL1        0.0810
     20 N         141.9437  143.5692  164.8514 N.ar    1  UNL1       -0.2497
     21 C         139.6067  138.6921  157.6401 C.3     1  UNL1        0.0730
     22 N         139.3441  139.1320  159.0499 N.3     1  UNL1       -0.2720
     23 C         138.2250  140.1150  159.2271 C.3     1  UNL1        0.0768
     24 C         137.7206  140.7396  160.4943 C.3     1  UNL1        0.0433
     25 C         138.2109  140.5355  161.8970 C.ar    1  UNL1       -0.0247
     26 C         137.4256  141.3561  162.8768 C.ar    1  UNL1       -0.0045
     27 C         137.7559  141.2976  164.3388 C.ar    1  UNL1        0.0011
     28 C         138.8716  140.4185  164.8211 C.ar    1  UNL1        0.0170
     29 C         139.6569  139.5979  163.8413 C.ar    1  UNL1       -0.0030
     30 C         139.3265  139.6564  162.3793 C.ar    1  UNL1       -0.0246
     31 C         140.2275  138.7643  161.5778 C.3     1  UNL1        0.0433
     32 C         140.2353  138.5310  160.0960 C.3     1  UNL1        0.0768
     33 C         139.2020  140.3600  166.2831 C.ar    1  UNL1        0.0791
     34 C         140.1613  141.2576  167.0068 C.ar    1  UNL1        0.0352
     35 C         140.1832  140.8460  168.4491 C.ar    1  UNL1        0.0804
     36 C         141.0064  141.4759  169.5333 C.3     1  UNL1        0.0540
     37 N         139.2374  139.6939  168.6167 N.ar    1  UNL1       -0.1736
     38 N         138.6309  139.3935  167.2780 N.ar    1  UNL1       -0.2492
     39 C         137.6293  138.3158  166.9857 C.3     1  UNL1        0.1537
@<TRIPOS>BOND
     1    10    11    1
     2    11    12   ar
     3    12    13   ar
     4    13    14   ar
     5    14    15   ar
     6    15     4    1
     7     4     5   ar
     8     5     6   ar
     9     6     7   ar
    10     7     3    1
    11     3     2    1
    12     2     1    1
    13     1    21    1
    14    21    22    1
    15    22    23    1
    16    23    24    1
    17    24    25    1
    18    25    26   ar
    19    26    27   ar
    20    27    28   ar
    21    28    33    1
    22    33    34   ar
    23    34    35   ar
    24    35    36    1
    25    35    37   ar
    26    37    38   ar
    27    38    39    1
    28    28    29   ar
    29    29    30   ar
    30    30    31    1
    31    31    32    1
    32     7     8   ar
    33     8     9    1
    34    15    16   ar
    35    16    17   ar
    36    17    18   ar
    37    18    19   ar
    38    19    20   ar
    39    20    11   ar
    40    19    14   ar
    41     8     4   ar
    42    32    22    1
    43    30    25   ar
    44    38    33   ar
@<TRIPOS>MOLECULE
*****
 39 44 0 0 0
SMALL
GASTEIGER

@<TRIPOS>ATOM
      1 C         140.2227  140.8622  156.7973 C.3     1  UNL1        0.0294
      2 C         140.7252  142.2706  156.6791 C.3     1  UNL1        0.0666
      3 S         139.8743  143.4125  157.1502 S.3     1  UNL1       -0.0756
      4 C         139.8820  144.2825  160.9329 C.ar    1  UNL1        0.1669
      5 N         140.7969  145.3402  160.3903 N.ar    1  UNL1       -0.1282
      6 N         140.9054  145.1430  158.9073 N.ar    1  UNL1       -0.1221
      7 C         140.0575  143.9635  158.5333 C.ar    1  UNL1        0.1932
      8 N         139.4251  143.4317  159.7851 N.ar    1  UNL1       -0.2884
      9 C         138.4983  142.2555  159.8737 C.3     1  UNL1        0.1340
     10 C         143.6089  142.4627  166.4146 C.3     1  UNL1        0.0521
     11 C         142.5798  142.8737  165.4036 C.ar    1  UNL1        0.0593
     12 C         142.9694  143.0496  163.9657 C.ar    1  UNL1        0.0147
     13 C         141.9402  143.4605  162.9548 C.ar    1  UNL1        0.0028
     14 C         140.5216  143.6956  163.3816 C.ar    1  UNL1        0.0206
     15 C         139.4925  144.1066  162.3706 C.ar    1  UNL1        0.0374
     16 C         138.0739  144.3416  162.7976 C.ar    1  UNL1        0.0031
     17 C         137.6843  144.1657  164.2354 C.ar    1  UNL1        0.0016
     18 C         138.7134  143.7547  165.2463 C.ar    1  UNL1        0.0191
     19 C         140.1320  143.5197  164.8195 C.ar    1  UNL1        0.0810
     20 N         141.1611  143.1087  165.8305 N.ar    1  UNL1       -0.2497
     21 C         141.0182  139.8435  157.5586 C.3     1  UNL1        0.0730
     22 N         140.7460  139.6157  159.0160 N.3     1  UNL1       -0.2720
     23 C         139.7046  138.5827  159.3298 C.3     1  UNL1        0.0768
     24 C         139.2112  138.1298  160.6721 C.3     1  UNL1        0.0433
     25 C         139.6373  138.5981  162.0318 C.ar    1  UNL1       -0.0247
     26 C         138.8892  137.8824  163.1173 C.ar    1  UNL1       -0.0045
     27 C         139.1658  138.2035  164.5561 C.ar    1  UNL1        0.0011
     28 C         140.1905  139.2403  164.9097 C.ar    1  UNL1        0.0170
     29 C         140.9386  139.9561  163.8242 C.ar    1  UNL1       -0.0030
     30 C         140.6620  139.6350  162.3854 C.ar    1  UNL1       -0.0246
     31 C         141.5137  140.4596  161.4663 C.3     1  UNL1        0.0433
     32 C         141.5510  140.4510  159.9668 C.3     1  UNL1        0.0768
     33 C         140.4671  139.5614  166.3486 C.ar    1  UNL1        0.0791
     34 C         139.4845  140.1277  167.3302 C.ar    1  UNL1        0.0352
     35 C         140.1850  140.2889  168.6467 C.ar    1  UNL1        0.0804
     36 C         139.5767  140.8229  169.9096 C.3     1  UNL1        0.0540
     37 N         141.6006  139.8222  168.4787 N.ar    1  UNL1       -0.1736
     38 N         141.7750  139.3726  167.0584 N.ar    1  UNL1       -0.2492
     39 C         143.0359  138.8296  166.4539 C.3     1  UNL1        0.1537
@<TRIPOS>BOND
     1    10    11    1
     2    11    12   ar
     3    12    13   ar
     4    13    14   ar
     5    14    15   ar
     6    15     4    1
     7     4     5   ar
     8     5     6   ar
     9     6     7   ar
    10     7     3    1
    11     3     2    1
    12     2     1    1
    13     1    21    1
    14    21    22    1
    15    22    23    1
    16    23    24    1
    17    24    25    1
    18    25    26   ar
    19    26    27   ar
    20    27    28   ar
    21    28    33    1
    22    33    34   ar
    23    34    35   ar
    24    35    36    1
    25    35    37   ar
    26    37    38   ar
    27    38    39    1
    28    28    29   ar
    29    29    30   ar
    30    30    31    1
    31    31    32    1
    32     7     8   ar
    33     8     9    1
    34    15    16   ar
    35    16    17   ar
    36    17    18   ar
    37    18    19   ar
    38    19    20   ar
    39    20    11   ar
    40    19    14   ar
    41     8     4   ar
    42    32    22    1
    43    30    25   ar
    44    38    33   ar
@<TRIPOS>MOLECULE
*****
 39 44 0 0 0
SMALL
GASTEIGER

@<TRIPOS>ATOM
      1 C         143.8362  142.1297  158.7366 C.3     1  UNL1        0.0294
      2 C         143.4796  143.3881  158.0022 C.3     1  UNL1        0.0666
      3 S         142.0398  143.7376  157.7685 S.3     1  UNL1       -0.0756
      4 C         139.5338  142.6691  160.5333 C.ar    1  UNL1        0.1669
      5 N         139.1258  141.7658  159.4074 N.ar    1  UNL1       -0.1282
      6 N         140.0148  142.0562  158.2347 N.ar    1  UNL1       -0.1221
      7 C         140.9724  143.1389  158.6358 C.ar    1  UNL1        0.1932
      8 N         140.6751  143.5177  160.0563 N.ar    1  UNL1       -0.2884
      9 C         141.3930  144.5618  160.8591 C.3     1  UNL1        0.1340
     10 C         138.8854  137.8114  165.3533 C.3     1  UNL1        0.0521
     11 C         138.8916  139.0375  164.4891 C.ar    1  UNL1        0.0593
     12 C         139.5153  138.9909  163.1257 C.ar    1  UNL1        0.0147
     13 C         139.5215  140.2170  162.2616 C.ar    1  UNL1        0.0028
     14 C         138.9040  141.4896  162.7608 C.ar    1  UNL1        0.0206
     15 C         138.9102  142.7157  161.8966 C.ar    1  UNL1        0.0374
     16 C         138.2927  143.9882  162.3959 C.ar    1  UNL1        0.0031
     17 C         137.6690  144.0347  163.7593 C.ar    1  UNL1        0.0016
     18 C         137.6628  142.8087  164.6234 C.ar    1  UNL1        0.0191
     19 C         138.2803  141.5361  164.1242 C.ar    1  UNL1        0.0810
     20 N         138.2741  140.3101  164.9884 N.ar    1  UNL1       -0.2497
     21 C         144.6629  142.1992  159.9863 C.3     1  UNL1        0.0730
     22 N         144.1239  141.6495  161.2736 N.3     1  UNL1       -0.2720
     23 C         144.2873  140.1712  161.4691 C.3     1  UNL1        0.0768
     24 C         143.8600  139.3290  162.6345 C.3     1  UNL1        0.0433
     25 C         143.1637  139.7571  163.8922 C.ar    1  UNL1       -0.0247
     26 C         142.9174  138.5929  164.8056 C.ar    1  UNL1       -0.0045
     27 C         142.2302  138.8048  166.1220 C.ar    1  UNL1        0.0011
     28 C         141.7892  140.1807  166.5250 C.ar    1  UNL1        0.0170
     29 C         142.0355  141.3448  165.6116 C.ar    1  UNL1       -0.0030
     30 C         142.7227  141.1330  164.2952 C.ar    1  UNL1       -0.0246
     31 C         142.8692  142.4207  163.5400 C.3     1  UNL1        0.0433
     32 C         143.4928  142.6505  162.1953 C.3     1  UNL1        0.0768
     33 C         141.1020  140.3925  167.8414 C.ar    1  UNL1        0.0791
     34 C         139.7056  139.9665  168.1856 C.ar    1  UNL1        0.0352
     35 C         139.4311  140.3783  169.6016 C.ar    1  UNL1        0.0804
     36 C         138.1540  140.1497  170.3544 C.3     1  UNL1        0.0540
     37 N         140.6579  141.0587  170.1325 N.ar    1  UNL1       -0.1736
     38 N         141.6906  141.0675  169.0447 N.ar    1  UNL1       -0.2492
     39 C         143.0697  141.6492  169.1429 C.3     1  UNL1        0.1537
@<TRIPOS>BOND
     1    10    11    1
     2    11    12   ar
     3    12    13   ar
     4    13    14   ar
     5    14    15   ar
     6    15     4    1
     7     4     5   ar
     8     5     6   ar
     9     6     7   ar
    10     7     3    1
    11     3     2    1
    12     2     1    1
    13     1    21    1
    14    21    22    1
    15    22    23    1
    16    23    24    1
    17    24    25    1
    18    25    26   ar
    19    26    27   ar
    20    27    28   ar
    21    28    33    1
    22    33    34   ar
    23    34    35   ar
    24    35    36    1
    25    35    37   ar
    26    37    38   ar
    27    38    39    1
    28    28    29   ar
    29    29    30   ar
    30    30    31    1
    31    31    32    1
    32     7     8   ar
    33     8     9    1
    34    15    16   ar
    35    16    17   ar
    36    17    18   ar
    37    18    19   ar
    38    19    20   ar
    39    20    11   ar
    40    19    14   ar
    41     8     4   ar
    42    32    22    1
    43    30    25   ar
    44    38    33   ar
@<TRIPOS>MOLECULE
*****
 39 44 0 0 0
SMALL
GASTEIGER

@<TRIPOS>ATOM
      1 C         140.3459  145.3653  157.8358 C.3     1  UNL1        0.0294
      2 C         140.1475  144.0768  157.0937 C.3     1  UNL1        0.0666
      3 S         139.0254  143.1571  157.4744 S.3     1  UNL1       -0.0756
      4 C         139.4918  141.0081  160.6728 C.ar    1  UNL1        0.1669
      5 N         138.4925  142.0212  161.1474 N.ar    1  UNL1       -0.1282
      6 N         138.1963  142.9494  160.0070 N.ar    1  UNL1       -0.1221
      7 C         139.0124  142.5101  158.8276 C.ar    1  UNL1        0.1932
      8 N         139.8130  141.3103  159.2391 N.ar    1  UNL1       -0.2884
      9 C         140.7674  140.5467  158.3695 C.3     1  UNL1        0.1340
     10 C         138.0817  138.9090  167.0646 C.3     1  UNL1        0.0521
     11 C         138.5784  139.1541  165.6706 C.ar    1  UNL1        0.0593
     12 C         138.0017  140.2729  164.8548 C.ar    1  UNL1        0.0147
     13 C         138.4984  140.5180  163.4608 C.ar    1  UNL1        0.0028
     14 C         139.5718  139.6442  162.8826 C.ar    1  UNL1        0.0206
     15 C         140.0685  139.8893  161.4885 C.ar    1  UNL1        0.0374
     16 C         141.1419  139.0155  160.9105 C.ar    1  UNL1        0.0031
     17 C         141.7187  137.8966  161.7263 C.ar    1  UNL1        0.0016
     18 C         141.2220  137.6516  163.1202 C.ar    1  UNL1        0.0191
     19 C         140.1486  138.5254  163.6984 C.ar    1  UNL1        0.0810
     20 N         139.6519  138.2803  165.0924 N.ar    1  UNL1       -0.2497
     21 C         141.4461  145.4860  158.8481 C.3     1  UNL1        0.0730
     22 N         141.2542  144.9419  160.2328 N.3     1  UNL1       -0.2720
     23 C         140.2157  145.6334  161.0655 C.3     1  UNL1        0.0768
     24 C         139.7927  145.3320  162.4728 C.3     1  UNL1        0.0433
     25 C         140.3037  144.2650  163.3948 C.ar    1  UNL1       -0.0247
     26 C         139.6074  144.3085  164.7227 C.ar    1  UNL1       -0.0045
     27 C         139.9714  143.3228  165.7931 C.ar    1  UNL1        0.0011
     28 C         141.0316  142.2934  165.5357 C.ar    1  UNL1        0.0170
     29 C         141.7280  142.2498  164.2077 C.ar    1  UNL1       -0.0030
     30 C         141.3640  143.2356  163.1373 C.ar    1  UNL1       -0.0246
     31 C         142.1751  143.0191  161.8943 C.3     1  UNL1        0.0433
     32 C         142.1262  143.7786  160.6016 C.3     1  UNL1        0.0768
     33 C         141.3956  141.3076  166.6061 C.ar    1  UNL1        0.0791
     34 C         140.7808  141.2218  167.9716 C.ar    1  UNL1        0.0352
     35 C         141.4435  140.0957  168.7083 C.ar    1  UNL1        0.0804
     36 C         141.1359  139.6569  170.1093 C.3     1  UNL1        0.0540
     37 N         142.4679  139.4856  167.7981 N.ar    1  UNL1       -0.1736
     38 N         142.4383  140.2346  166.4988 N.ar    1  UNL1       -0.2492
     39 C         143.3001  139.9590  165.3024 C.3     1  UNL1        0.1537
@<TRIPOS>BOND
     1    10    11    1
     2    11    12   ar
     3    12    13   ar
     4    13    14   ar
     5    14    15   ar
     6    15     4    1
     7     4     5   ar
     8     5     6   ar
     9     6     7   ar
    10     7     3    1
    11     3     2    1
    12     2     1    1
    13     1    21    1
    14    21    22    1
    15    22    23    1
    16    23    24    1
    17    24    25    1
    18    25    26   ar
    19    26    27   ar
    20    27    28   ar
    21    28    33    1
    22    33    34   ar
    23    34    35   ar
    24    35    36    1
    25    35    37   ar
    26    37    38   ar
    27    38    39    1
    28    28    29   ar
    29    29    30   ar
    30    30    31    1
    31    31    32    1
    32     7     8   ar
    33     8     9    1
    34    15    16   ar
    35    16    17   ar
    36    17    18   ar
    37    18    19   ar
    38    19    20   ar
    39    20    11   ar
    40    19    14   ar
    41     8     4   ar
    42    32    22    1
    43    30    25   ar
    44    38    33   ar
@<TRIPOS>MOLECULE
*****
 39 44 0 0 0
SMALL
GASTEIGER

@<TRIPOS>ATOM
      1 C         141.6122  140.5701  157.0750 C.3     1  UNL1        0.0294
      2 C         141.8786  141.9826  156.6459 C.3     1  UNL1        0.0666
      3 S         141.0167  143.0976  157.1595 S.3     1  UNL1       -0.0756
      4 C         140.7726  144.0001  160.9267 C.ar    1  UNL1        0.1669
      5 N         142.0748  144.6466  160.5575 N.ar    1  UNL1       -0.1282
      6 N         142.3247  144.3872  159.1014 N.ar    1  UNL1       -0.1221
      7 C         141.1769  143.5804  158.5706 C.ar    1  UNL1        0.1932
      8 N         140.2177  143.3411  159.6987 N.ar    1  UNL1       -0.2884
      9 C         138.9297  142.5771  159.6138 C.3     1  UNL1        0.1340
     10 C         143.2677  142.2099  167.0765 C.3     1  UNL1        0.0521
     11 C         142.4850  142.6601  165.8787 C.ar    1  UNL1        0.0593
     12 C         143.1207  142.6495  164.5201 C.ar    1  UNL1        0.0147
     13 C         142.3380  143.0997  163.3223 C.ar    1  UNL1        0.0028
     14 C         140.9196  143.5605  163.4830 C.ar    1  UNL1        0.0206
     15 C         140.1369  144.0106  162.2852 C.ar    1  UNL1        0.0374
     16 C         138.7185  144.4714  162.4461 C.ar    1  UNL1        0.0031
     17 C         138.0828  144.4820  163.8047 C.ar    1  UNL1        0.0016
     18 C         138.8655  144.0318  165.0024 C.ar    1  UNL1        0.0191
     19 C         140.2839  143.5711  164.8416 C.ar    1  UNL1        0.0810
     20 N         141.0666  143.1209  166.0395 N.ar    1  UNL1       -0.2497
     21 C         142.6326  139.8274  157.8857 C.3     1  UNL1        0.0730
     22 N         142.4573  139.6912  159.3692 N.3     1  UNL1       -0.2720
     23 C         143.6928  139.3316  160.1402 C.3     1  UNL1        0.0768
     24 C         143.8458  139.1246  161.6180 C.3     1  UNL1        0.0433
     25 C         142.8013  139.2260  162.6896 C.ar    1  UNL1       -0.0247
     26 C         143.3774  138.9412  164.0450 C.ar    1  UNL1       -0.0045
     27 C         142.4978  138.9899  165.2591 C.ar    1  UNL1        0.0011
     28 C         141.0422  139.3234  165.1179 C.ar    1  UNL1        0.0170
     29 C         140.4661  139.6081  163.7624 C.ar    1  UNL1       -0.0030
     30 C         141.3457  139.5594  162.5483 C.ar    1  UNL1       -0.0246
     31 C         140.5751  139.8738  161.3004 C.3     1  UNL1        0.0433
     32 C         141.0699  139.9325  159.8856 C.3     1  UNL1        0.0768
     33 C         140.1626  139.3721  166.3319 C.ar    1  UNL1        0.0791
     34 C         140.3929  140.2101  167.5545 C.ar    1  UNL1        0.0352
     35 C         139.2710  139.9473  168.5147 C.ar    1  UNL1        0.0804
     36 C         139.1024  140.5748  169.8667 C.3     1  UNL1        0.0540
     37 N         138.3472  138.9468  167.8856 N.ar    1  UNL1       -0.1736
     38 N         138.8983  138.5913  166.5366 N.ar    1  UNL1       -0.2492
     39 C         138.2915  137.6247  165.5631 C.3     1  UNL1        0.1537
@<TRIPOS>BOND
     1    10    11    1
     2    11    12   ar
     3    12    13   ar
     4    13    14   ar
     5    14    15   ar
     6    15     4    1
     7     4     5   ar
     8     5     6   ar
     9     6     7   ar
    10     7     3    1
    11     3     2    1
    12     2     1    1
    13     1    21    1
    14    21    22    1
    15    22    23    1
    16    23    24    1
    17    24    25    1
    18    25    26   ar
    19    26    27   ar
    20    27    28   ar
    21    28    33    1
    22    33    34   ar
    23    34    35   ar
    24    35    36    1
    25    35    37   ar
    26    37    38   ar
    27    38    39    1
    28    28    29   ar
    29    29    30   ar
    30    30    31    1
    31    31    32    1
    32     7     8   ar
    33     8     9    1
    34    15    16   ar
    35    16    17   ar
    36    17    18   ar
    37    18    19   ar
    38    19    20   ar
    39    20    11   ar
    40    19    14   ar
    41     8     4   ar
    42    32    22    1
    43    30    25   ar
    44    38    33   ar
