@<TRIPOS>MOLECULE
*****
 33 37 0 0 0
SMALL
GASTEIGER

@<TRIPOS>ATOM
      1 C         137.9885  140.0714  161.9268 C.3     1  UNL1        0.0466
      2 C         137.3357  140.8023  163.0623 C.3     1  UNL1        0.0211
      3 C         137.4932  142.2889  163.1866 C.3     1  UNL1        0.0722
      4 N         138.3036  143.0444  162.1754 N.3     1  UNL1       -0.2724
      5 C         138.9564  142.3133  161.0398 C.3     1  UNL1        0.0722
      6 C         138.7989  140.8268  160.9155 C.3     1  UNL1        0.0211
      7 C         137.8310  138.5849  161.8025 C.3     1  UNL1        0.2071
      8 O         138.3906  137.6803  162.8601 O.3     1  UNL1       -0.4602
      9 C         144.1245  137.8374  161.3826 C.3     1  UNL1        0.1305
     10 N         143.0397  138.0969  162.3856 N.ar    1  UNL1       -0.3228
     11 C         141.5768  137.8285  162.1914 C.ar    1  UNL1        0.0806
     12 C         140.8604  138.2360  163.4447 C.ar    1  UNL1        0.0718
     13 C         139.4109  138.2006  163.8289 C.ar    1  UNL1        0.2262
     14 N         138.9816  138.6854  165.1819 N.ar    1  UNL1       -0.2116
     15 C         140.0018  139.2057  166.1507 C.ar    1  UNL1        0.0844
     16 C         139.5725  139.6905  167.5037 C.ar    1  UNL1        0.0192
     17 C         140.5927  140.2107  168.4724 C.ar    1  UNL1        0.0015
     18 C         142.0422  140.2461  168.0882 C.ar    1  UNL1        0.0001
     19 C         142.4715  139.7613  166.7352 C.ar    1  UNL1        0.0015
     20 C         141.4513  139.2411  165.7665 C.ar    1  UNL1        0.0194
     21 C         141.8806  138.7562  164.4134 C.ar    1  UNL1        0.0246
     22 C         143.2275  138.6703  163.7589 C.ar    1  UNL1        0.0762
     23 C         138.4611  144.5309  162.2996 C.3     1  UNL1        0.0768
     24 C         139.1111  145.1169  163.5178 C.3     1  UNL1        0.0437
     25 C         140.4928  144.6855  163.9116 C.ar    1  UNL1       -0.0208
     26 C         141.6855  145.4547  163.4261 C.ar    1  UNL1       -0.0042
     27 C         143.0672  145.0233  163.8199 C.ar    1  UNL1        0.0008
     28 C         143.2561  143.8228  164.6991 C.ar    1  UNL1        0.0140
     29 C         142.0632  143.0537  165.1846 C.ar    1  UNL1        0.0008
     30 C         140.6816  143.4850  164.7909 C.ar    1  UNL1       -0.0042
     31 C         144.6376  143.3914  165.0929 C.2     1  UNL1        0.0729
     32 O         145.3017  142.2545  164.3743 O.co2   1  UNL1       -0.5446
     33 O         145.3551  144.0969  166.2053 O.co2   1  UNL1       -0.5446
@<TRIPOS>UNITY_ATOM_ATTR
32 1
charge -1
@<TRIPOS>BOND
     1     9    10    1
     2    10    11   ar
     3    11    12   ar
     4    12    13   ar
     5    13     8    1
     6     8     7    1
     7     7     1    1
     8     1     2    1
     9     2     3    1
    10     3     4    1
    11     4    23    1
    12    23    24    1
    13    24    25    1
    14    25    26   ar
    15    26    27   ar
    16    27    28   ar
    17    28    31    1
    18    31    32   ar
    19    31    33   ar
    20    28    29   ar
    21    29    30   ar
    22     4     5    1
    23     5     6    1
    24    13    14   ar
    25    14    15   ar
    26    15    16   ar
    27    16    17   ar
    28    17    18   ar
    29    18    19   ar
    30    19    20   ar
    31    20    21   ar
    32    21    22   ar
    33    22    10   ar
    34    21    12   ar
    35     6     1    1
    36    20    15   ar
    37    30    25   ar
@<TRIPOS>MOLECULE
*****
 33 37 0 0 0
SMALL
GASTEIGER

@<TRIPOS>ATOM
      1 C         139.5969  137.6442  164.3956 C.3     1  UNL1        0.0466
      2 C         139.1709  137.8703  162.9753 C.3     1  UNL1        0.0211
      3 C         140.2034  138.0254  161.8982 C.3     1  UNL1        0.0722
      4 N         141.6618  137.9545  162.2416 N.3     1  UNL1       -0.2724
      5 C         142.0878  137.7284  163.6621 C.3     1  UNL1        0.0722
      6 C         141.0553  137.5733  164.7390 C.3     1  UNL1        0.0211
      7 C         138.5644  137.4891  165.4726 C.3     1  UNL1        0.2071
      8 O         138.0373  138.6987  166.1861 O.3     1  UNL1       -0.4602
      9 C         142.7441  140.9474  168.9923 C.3     1  UNL1        0.1305
     10 N         141.6646  141.0879  167.9603 N.ar    1  UNL1       -0.3228
     11 C         140.6129  140.0674  167.6399 C.ar    1  UNL1        0.0806
     12 C         139.7456  140.6223  166.5491 C.ar    1  UNL1        0.0718
     13 C         138.5530  140.0622  165.8323 C.ar    1  UNL1        0.2262
     14 N         137.8759  140.8655  164.7617 N.ar    1  UNL1       -0.2116
     15 C         138.3916  142.2290  164.4078 C.ar    1  UNL1        0.0844
     16 C         137.7146  143.0323  163.3372 C.ar    1  UNL1        0.0192
     17 C         138.2302  144.3957  162.9835 C.ar    1  UNL1        0.0015
     18 C         139.4229  144.9558  163.7003 C.ar    1  UNL1        0.0001
     19 C         140.0999  144.1525  164.7709 C.ar    1  UNL1        0.0015
     20 C         139.5843  142.7891  165.1247 C.ar    1  UNL1        0.0194
     21 C         140.2613  141.9857  166.1953 C.ar    1  UNL1        0.0246
     22 C         141.4473  142.2735  167.0674 C.ar    1  UNL1        0.0762
     23 C         142.6943  138.1096  161.1647 C.3     1  UNL1        0.0768
     24 C         143.9987  138.7853  161.4680 C.3     1  UNL1        0.0437
     25 C         144.0168  140.0614  162.2564 C.ar    1  UNL1       -0.0208
     26 C         143.0961  141.1857  161.8847 C.ar    1  UNL1       -0.0042
     27 C         143.1142  142.4617  162.6731 C.ar    1  UNL1        0.0008
     28 C         144.0530  142.6134  163.8331 C.ar    1  UNL1        0.0140
     29 C         144.9738  141.4889  164.2047 C.ar    1  UNL1        0.0008
     30 C         144.9556  140.2130  163.4164 C.ar    1  UNL1       -0.0042
     31 C         144.0712  143.8893  164.6215 C.2     1  UNL1        0.0729
     32 O         144.7976  143.9506  165.9325 O.co2   1  UNL1       -0.5446
     33 O         143.3630  145.1039  164.0989 O.co2   1  UNL1       -0.5446
@<TRIPOS>UNITY_ATOM_ATTR
32 1
charge -1
@<TRIPOS>BOND
     1     9    10    1
     2    10    11   ar
     3    11    12   ar
     4    12    13   ar
     5    13     8    1
     6     8     7    1
     7     7     1    1
     8     1     2    1
     9     2     3    1
    10     3     4    1
    11     4    23    1
    12    23    24    1
    13    24    25    1
    14    25    26   ar
    15    26    27   ar
    16    27    28   ar
    17    28    31    1
    18    31    32   ar
    19    31    33   ar
    20    28    29   ar
    21    29    30   ar
    22     4     5    1
    23     5     6    1
    24    13    14   ar
    25    14    15   ar
    26    15    16   ar
    27    16    17   ar
    28    17    18   ar
    29    18    19   ar
    30    19    20   ar
    31    20    21   ar
    32    21    22   ar
    33    22    10   ar
    34    21    12   ar
    35     6     1    1
    36    20    15   ar
    37    30    25   ar
@<TRIPOS>MOLECULE
*****
 33 37 0 0 0
SMALL
GASTEIGER

@<TRIPOS>ATOM
      1 C         142.9787  144.2243  162.5240 C.3     1  UNL1        0.0466
      2 C         142.0640  143.6139  161.5039 C.3     1  UNL1        0.0211
      3 C         140.5829  143.8319  161.5985 C.3     1  UNL1        0.0722
      4 N         140.0166  144.6603  162.7134 N.3     1  UNL1       -0.2724
      5 C         140.9313  145.2708  163.7336 C.3     1  UNL1        0.0722
      6 C         142.4123  145.0528  163.6389 C.3     1  UNL1        0.0211
      7 C         144.4597  144.0064  162.4293 C.3     1  UNL1        0.2071
      8 O         145.1053  142.8954  163.2033 O.3     1  UNL1       -0.4602
      9 C         142.9362  137.7082  161.3399 C.3     1  UNL1        0.1305
     10 N         143.0887  138.7310  162.4265 N.ar    1  UNL1       -0.3228
     11 C         143.8457  140.0218  162.3224 C.ar    1  UNL1        0.0806
     12 C         143.7358  140.7311  163.6395 C.ar    1  UNL1        0.0718
     13 C         144.2803  142.0431  164.1215 C.ar    1  UNL1        0.2262
     14 N         143.9999  142.5026  165.5215 N.ar    1  UNL1       -0.2116
     15 C         143.1750  141.6502  166.4397 C.ar    1  UNL1        0.0844
     16 C         142.8945  142.1098  167.8397 C.ar    1  UNL1        0.0192
     17 C         142.0696  141.2574  168.7578 C.ar    1  UNL1        0.0015
     18 C         141.5251  139.9455  168.2758 C.ar    1  UNL1        0.0001
     19 C         141.8055  139.4859  166.8758 C.ar    1  UNL1        0.0015
     20 C         142.6304  140.3383  165.9577 C.ar    1  UNL1        0.0194
     21 C         142.9109  139.8787  164.5576 C.ar    1  UNL1        0.0246
     22 C         142.5109  138.6426  163.8080 C.ar    1  UNL1        0.0762
     23 C         138.5355  144.8783  162.8081 C.3     1  UNL1        0.0768
     24 C         137.7091  144.0255  163.7244 C.3     1  UNL1        0.0437
     25 C         137.9880  142.5559  163.8361 C.ar    1  UNL1       -0.0208
     26 C         138.6728  142.0130  165.0552 C.ar    1  UNL1       -0.0042
     27 C         138.9518  140.5434  165.1669 C.ar    1  UNL1        0.0008
     28 C         138.5460  139.6167  164.0594 C.ar    1  UNL1        0.0140
     29 C         137.8612  140.1596  162.8402 C.ar    1  UNL1        0.0008
     30 C         137.5822  141.6292  162.7286 C.ar    1  UNL1       -0.0042
     31 C         138.8249  138.1471  164.1710 C.2     1  UNL1        0.0729
     32 O         139.2742  137.3753  162.9658 O.co2   1  UNL1       -0.5446
     33 O         138.6545  137.4493  165.4878 O.co2   1  UNL1       -0.5446
@<TRIPOS>UNITY_ATOM_ATTR
32 1
charge -1
@<TRIPOS>BOND
     1     9    10    1
     2    10    11   ar
     3    11    12   ar
     4    12    13   ar
     5    13     8    1
     6     8     7    1
     7     7     1    1
     8     1     2    1
     9     2     3    1
    10     3     4    1
    11     4    23    1
    12    23    24    1
    13    24    25    1
    14    25    26   ar
    15    26    27   ar
    16    27    28   ar
    17    28    31    1
    18    31    32   ar
    19    31    33   ar
    20    28    29   ar
    21    29    30   ar
    22     4     5    1
    23     5     6    1
    24    13    14   ar
    25    14    15   ar
    26    15    16   ar
    27    16    17   ar
    28    17    18   ar
    29    18    19   ar
    30    19    20   ar
    31    20    21   ar
    32    21    22   ar
    33    22    10   ar
    34    21    12   ar
    35     6     1    1
    36    20    15   ar
    37    30    25   ar
@<TRIPOS>MOLECULE
*****
 33 37 0 0 0
SMALL
GASTEIGER

@<TRIPOS>ATOM
      1 C         138.1075  143.0641  162.5971 C.3     1  UNL1        0.0466
      2 C         137.5083  142.0937  163.5713 C.3     1  UNL1        0.0211
      3 C         137.4853  140.6282  163.2523 C.3     1  UNL1        0.0722
      4 N         138.0616  140.1331  161.9590 N.3     1  UNL1       -0.2724
      5 C         138.6608  141.1036  160.9846 C.3     1  UNL1        0.0722
      6 C         138.6838  142.5690  161.3037 C.3     1  UNL1        0.0211
      7 C         138.1304  144.5296  162.9161 C.3     1  UNL1        0.2071
      8 O         139.2691  145.1082  163.7025 O.3     1  UNL1       -0.4602
      9 C         144.4000  143.1742  161.4623 C.3     1  UNL1        0.1305
     10 N         143.4154  143.2134  162.5933 N.ar    1  UNL1       -0.3228
     11 C         142.1173  143.9648  162.6066 C.ar    1  UNL1        0.0806
     12 C         141.4557  143.7238  163.9311 C.ar    1  UNL1        0.0718
     13 C         140.1584  144.2078  164.5079 C.ar    1  UNL1        0.2262
     14 N         139.7504  143.7916  165.8900 N.ar    1  UNL1       -0.2116
     15 C         140.6397  142.8912  166.6953 C.ar    1  UNL1        0.0844
     16 C         140.2317  142.4749  168.0774 C.ar    1  UNL1        0.0192
     17 C         141.1210  141.5746  168.8826 C.ar    1  UNL1        0.0015
     18 C         142.4183  141.0905  168.3058 C.ar    1  UNL1        0.0001
     19 C         142.8263  141.5068  166.9237 C.ar    1  UNL1        0.0015
     20 C         141.9370  142.4071  166.1185 C.ar    1  UNL1        0.0194
     21 C         142.3450  142.8234  164.7363 C.ar    1  UNL1        0.0246
     22 C         143.5562  142.5080  163.9096 C.ar    1  UNL1        0.0762
     23 C         138.0387  138.6676  161.6399 C.3     1  UNL1        0.0768
     24 C         138.5603  137.6750  162.6361 C.3     1  UNL1        0.0437
     25 C         139.8779  137.9128  163.3126 C.ar    1  UNL1       -0.0208
     26 C         139.9210  138.2476  164.7741 C.ar    1  UNL1       -0.0042
     27 C         141.2385  138.4854  165.4505 C.ar    1  UNL1        0.0008
     28 C         142.5130  138.3885  164.6654 C.ar    1  UNL1        0.0140
     29 C         142.4698  138.0538  163.2038 C.ar    1  UNL1        0.0008
     30 C         141.1523  137.8159  162.5274 C.ar    1  UNL1       -0.0042
     31 C         143.8305  138.6264  165.3418 C.2     1  UNL1        0.0729
     32 O         144.0642  138.1110  166.7309 O.co2   1  UNL1       -0.5446
     33 O         144.9142  139.3796  164.6290 O.co2   1  UNL1       -0.5446
@<TRIPOS>UNITY_ATOM_ATTR
32 1
charge -1
@<TRIPOS>BOND
     1     9    10    1
     2    10    11   ar
     3    11    12   ar
     4    12    13   ar
     5    13     8    1
     6     8     7    1
     7     7     1    1
     8     1     2    1
     9     2     3    1
    10     3     4    1
    11     4    23    1
    12    23    24    1
    13    24    25    1
    14    25    26   ar
    15    26    27   ar
    16    27    28   ar
    17    28    31    1
    18    31    32   ar
    19    31    33   ar
    20    28    29   ar
    21    29    30   ar
    22     4     5    1
    23     5     6    1
    24    13    14   ar
    25    14    15   ar
    26    15    16   ar
    27    16    17   ar
    28    17    18   ar
    29    18    19   ar
    30    19    20   ar
    31    20    21   ar
    32    21    22   ar
    33    22    10   ar
    34    21    12   ar
    35     6     1    1
    36    20    15   ar
    37    30    25   ar
@<TRIPOS>MOLECULE
*****
 33 37 0 0 0
SMALL
GASTEIGER

@<TRIPOS>ATOM
      1 C         137.8856  142.9693  162.8766 C.3     1  UNL1        0.0466
      2 C         138.1492  142.6206  161.4418 C.3     1  UNL1        0.0211
      3 C         138.1803  141.1836  161.0126 C.3     1  UNL1        0.0722
      4 N         137.9478  140.0953  162.0184 N.3     1  UNL1       -0.2724
      5 C         137.6841  140.4441  163.4533 C.3     1  UNL1        0.0722
      6 C         137.6531  141.8810  163.8824 C.3     1  UNL1        0.0211
      7 C         137.8545  144.4063  163.3057 C.3     1  UNL1        0.2071
      8 O         139.0854  145.0451  163.8774 O.3     1  UNL1       -0.4602
      9 C         140.5245  141.9417  168.7130 C.3     1  UNL1        0.1305
     10 N         140.8580  142.4020  167.3248 N.ar    1  UNL1       -0.3228
     11 C         140.0126  143.2939  166.4647 C.ar    1  UNL1        0.0806
     12 C         140.7275  143.4943  165.1614 C.ar    1  UNL1        0.0718
     13 C         140.3727  144.2770  163.9319 C.ar    1  UNL1        0.2262
     14 N         141.3051  144.2915  162.7571 N.ar    1  UNL1       -0.2116
     15 C         142.5924  143.5234  162.8116 C.ar    1  UNL1        0.0844
     16 C         143.5248  143.5379  161.6367 C.ar    1  UNL1        0.0192
     17 C         144.8120  142.7698  161.6913 C.ar    1  UNL1        0.0015
     18 C         145.1668  141.9872  162.9208 C.ar    1  UNL1        0.0001
     19 C         144.2344  141.9726  164.0956 C.ar    1  UNL1        0.0015
     20 C         142.9472  142.7407  164.0411 C.ar    1  UNL1        0.0194
     21 C         142.0147  142.7262  165.2160 C.ar    1  UNL1        0.0246
     22 C         142.0954  142.0511  166.5530 C.ar    1  UNL1        0.0762
     23 C         137.9789  138.6584  161.5893 C.3     1  UNL1        0.0768
     24 C         139.2925  137.9535  161.4234 C.3     1  UNL1        0.0437
     25 C         140.3715  138.1264  162.4510 C.ar    1  UNL1       -0.0208
     26 C         141.6553  138.8091  162.0829 C.ar    1  UNL1       -0.0042
     27 C         142.7343  138.9820  163.1105 C.ar    1  UNL1        0.0008
     28 C         142.5294  138.4721  164.5063 C.ar    1  UNL1        0.0140
     29 C         141.2455  137.7893  164.8743 C.ar    1  UNL1        0.0008
     30 C         140.1665  137.6165  163.8467 C.ar    1  UNL1       -0.0042
     31 C         143.6083  138.6449  165.5339 C.2     1  UNL1        0.0729
     32 O         145.0361  138.8043  165.1027 O.co2   1  UNL1       -0.5446
     33 O         143.2594  138.6583  166.9926 O.co2   1  UNL1       -0.5446
@<TRIPOS>UNITY_ATOM_ATTR
32 1
charge -1
@<TRIPOS>BOND
     1     9    10    1
     2    10    11   ar
     3    11    12   ar
     4    12    13   ar
     5    13     8    1
     6     8     7    1
     7     7     1    1
     8     1     2    1
     9     2     3    1
    10     3     4    1
    11     4    23    1
    12    23    24    1
    13    24    25    1
    14    25    26   ar
    15    26    27   ar
    16    27    28   ar
    17    28    31    1
    18    31    32   ar
    19    31    33   ar
    20    28    29   ar
    21    29    30   ar
    22     4     5    1
    23     5     6    1
    24    13    14   ar
    25    14    15   ar
    26    15    16   ar
    27    16    17   ar
    28    17    18   ar
    29    18    19   ar
    30    19    20   ar
    31    20    21   ar
    32    21    22   ar
    33    22    10   ar
    34    21    12   ar
    35     6     1    1
    36    20    15   ar
    37    30    25   ar
@<TRIPOS>MOLECULE
*****
 33 37 0 0 0
SMALL
GASTEIGER

@<TRIPOS>ATOM
      1 C         138.9752  139.4913  161.1662 C.3     1  UNL1        0.0466
      2 C         140.0011  140.2570  160.3844 C.3     1  UNL1        0.0211
      3 C         141.4397  139.8335  160.4184 C.3     1  UNL1        0.0722
      4 N         141.8524  138.6443  161.2342 N.3     1  UNL1       -0.2724
      5 C         140.8264  137.8786  162.0160 C.3     1  UNL1        0.0722
      6 C         139.3879  138.3021  161.9820 C.3     1  UNL1        0.0211
      7 C         137.5367  139.9148  161.1323 C.3     1  UNL1        0.2071
      8 O         137.0294  140.9272  162.1161 O.3     1  UNL1       -0.4602
      9 C         139.7965  146.1586  161.8698 C.3     1  UNL1        0.1305
     10 N         139.4981  144.8866  162.6069 N.ar    1  UNL1       -0.3228
     11 C         138.6144  143.7747  162.1246 C.ar    1  UNL1        0.0806
     12 C         138.6013  142.7042  163.1752 C.ar    1  UNL1        0.0718
     13 C         137.9051  141.3775  163.2477 C.ar    1  UNL1        0.2262
     14 N         138.0846  140.5011  164.4517 N.ar    1  UNL1       -0.2116
     15 C         138.9602  140.9514  165.5834 C.ar    1  UNL1        0.0844
     16 C         139.1397  140.0751  166.7874 C.ar    1  UNL1        0.0192
     17 C         140.0153  140.5254  167.9189 C.ar    1  UNL1        0.0015
     18 C         140.7115  141.8521  167.8464 C.ar    1  UNL1        0.0001
     19 C         140.5320  142.7284  166.6424 C.ar    1  UNL1        0.0015
     20 C         139.6564  142.2781  165.5109 C.ar    1  UNL1        0.0194
     21 C         139.4769  143.1545  164.3068 C.ar    1  UNL1        0.0246
     22 C         140.0312  144.5033  163.9555 C.ar    1  UNL1        0.0762
     23 C         143.2909  138.2208  161.2681 C.3     1  UNL1        0.0768
     24 C         144.1137  138.4581  162.4997 C.3     1  UNL1        0.0437
     25 C         144.1804  139.8292  163.1044 C.ar    1  UNL1       -0.0208
     26 C         144.8738  140.9392  162.3716 C.ar    1  UNL1       -0.0042
     27 C         144.9405  142.3104  162.9764 C.ar    1  UNL1        0.0008
     28 C         144.3137  142.5714  164.3139 C.ar    1  UNL1        0.0140
     29 C         143.6202  141.4613  165.0467 C.ar    1  UNL1        0.0008
     30 C         143.5536  140.0903  164.4420 C.ar    1  UNL1       -0.0042
     31 C         144.3803  143.9424  164.9187 C.2     1  UNL1        0.0729
     32 O         145.2438  144.1912  166.1197 O.co2   1  UNL1       -0.5446
     33 O         143.5835  145.0647  164.3224 O.co2   1  UNL1       -0.5446
@<TRIPOS>UNITY_ATOM_ATTR
32 1
charge -1
@<TRIPOS>BOND
     1     9    10    1
     2    10    11   ar
     3    11    12   ar
     4    12    13   ar
     5    13     8    1
     6     8     7    1
     7     7     1    1
     8     1     2    1
     9     2     3    1
    10     3     4    1
    11     4    23    1
    12    23    24    1
    13    24    25    1
    14    25    26   ar
    15    26    27   ar
    16    27    28   ar
    17    28    31    1
    18    31    32   ar
    19    31    33   ar
    20    28    29   ar
    21    29    30   ar
    22     4     5    1
    23     5     6    1
    24    13    14   ar
    25    14    15   ar
    26    15    16   ar
    27    16    17   ar
    28    17    18   ar
    29    18    19   ar
    30    19    20   ar
    31    20    21   ar
    32    21    22   ar
    33    22    10   ar
    34    21    12   ar
    35     6     1    1
    36    20    15   ar
    37    30    25   ar
@<TRIPOS>MOLECULE
*****
 33 37 0 0 0
SMALL
GASTEIGER

@<TRIPOS>ATOM
      1 C         143.6371  138.8923  161.2602 C.3     1  UNL1        0.0466
      2 C         144.0346  138.6229  162.6812 C.3     1  UNL1        0.0211
      3 C         144.6756  139.7049  163.4987 C.3     1  UNL1        0.0722
      4 N         144.9191  141.0564  162.8951 N.3     1  UNL1       -0.2724
      5 C         144.5216  141.3257  161.4740 C.3     1  UNL1        0.0722
      6 C         143.8806  140.2437  160.6566 C.3     1  UNL1        0.0211
      7 C         142.9960  137.8102  160.4427 C.3     1  UNL1        0.2071
      8 O         141.5022  137.6775  160.4135 O.3     1  UNL1       -0.4602
      9 C         139.2689  143.1006  159.5838 C.3     1  UNL1        0.1305
     10 N         139.4363  141.8898  160.4534 N.ar    1  UNL1       -0.3228
     11 C         140.2075  140.6520  160.1025 C.ar    1  UNL1        0.0806
     12 C         140.1097  139.7016  161.2588 C.ar    1  UNL1        0.0718
     13 C         140.6705  138.3279  161.4791 C.ar    1  UNL1        0.2262
     14 N         140.3996  137.6046  162.7649 N.ar    1  UNL1       -0.2116
     15 C         139.5679  138.2549  163.8305 C.ar    1  UNL1        0.0844
     16 C         139.2971  137.5316  165.1163 C.ar    1  UNL1        0.0192
     17 C         138.4654  138.1820  166.1818 C.ar    1  UNL1        0.0015
     18 C         137.9046  139.5557  165.9615 C.ar    1  UNL1        0.0001
     19 C         138.1755  140.2790  164.6757 C.ar    1  UNL1        0.0015
     20 C         139.0072  139.6286  163.6102 C.ar    1  UNL1        0.0194
     21 C         139.2781  140.3519  162.3243 C.ar    1  UNL1        0.0246
     22 C         138.8619  141.7043  161.8266 C.ar    1  UNL1        0.0762
     23 C         145.5601  142.1384  163.7125 C.3     1  UNL1        0.0768
     24 C         144.7932  142.7937  164.8226 C.3     1  UNL1        0.0437
     25 C         143.4008  143.2952  164.5781 C.ar    1  UNL1       -0.0208
     26 C         143.1873  144.6526  163.9765 C.ar    1  UNL1       -0.0042
     27 C         141.7949  145.1541  163.7319 C.ar    1  UNL1        0.0008
     28 C         140.6160  144.2981  164.0890 C.ar    1  UNL1        0.0140
     29 C         140.8295  142.9406  164.6906 C.ar    1  UNL1        0.0008
     30 C         142.2218  142.4392  164.9351 C.ar    1  UNL1       -0.0042
     31 C         139.2236  144.7995  163.8444 C.2     1  UNL1        0.0729
     32 O         138.8062  145.2106  162.4636 O.co2   1  UNL1       -0.5446
     33 O         138.2486  144.8898  164.9807 O.co2   1  UNL1       -0.5446
@<TRIPOS>UNITY_ATOM_ATTR
32 1
charge -1
@<TRIPOS>BOND
     1     9    10    1
     2    10    11   ar
     3    11    12   ar
     4    12    13   ar
     5    13     8    1
     6     8     7    1
     7     7     1    1
     8     1     2    1
     9     2     3    1
    10     3     4    1
    11     4    23    1
    12    23    24    1
    13    24    25    1
    14    25    26   ar
    15    26    27   ar
    16    27    28   ar
    17    28    31    1
    18    31    32   ar
    19    31    33   ar
    20    28    29   ar
    21    29    30   ar
    22     4     5    1
    23     5     6    1
    24    13    14   ar
    25    14    15   ar
    26    15    16   ar
    27    16    17   ar
    28    17    18   ar
    29    18    19   ar
    30    19    20   ar
    31    20    21   ar
    32    21    22   ar
    33    22    10   ar
    34    21    12   ar
    35     6     1    1
    36    20    15   ar
    37    30    25   ar
@<TRIPOS>MOLECULE
*****
 33 37 0 0 0
SMALL
GASTEIGER

@<TRIPOS>ATOM
      1 C         144.5056  140.7378  163.2462 C.3     1  UNL1        0.0466
      2 C         144.0919  139.4605  163.9149 C.3     1  UNL1        0.0211
      3 C         143.0984  138.5538  163.2507 C.3     1  UNL1        0.0722
      4 N         142.5187  138.9246  161.9179 N.3     1  UNL1       -0.2724
      5 C         142.9325  140.2020  161.2492 C.3     1  UNL1        0.0722
      6 C         143.9259  141.1086  161.9133 C.3     1  UNL1        0.0211
      7 C         145.4990  141.6444  163.9103 C.3     1  UNL1        0.2071
      8 O         145.0231  142.8189  164.7129 O.3     1  UNL1       -0.4602
      9 C         142.1468  140.5786  169.3812 C.3     1  UNL1        0.1305
     10 N         142.1282  141.3792  168.1128 N.ar    1  UNL1       -0.3228
     11 C         143.3064  141.6533  167.2258 C.ar    1  UNL1        0.0806
     12 C         142.8344  142.4897  166.0736 C.ar    1  UNL1        0.0718
     13 C         143.5532  143.0617  164.8877 C.ar    1  UNL1        0.2262
     14 N         142.8022  143.8763  163.8767 N.ar    1  UNL1       -0.2116
     15 C         141.3322  144.1191  164.0515 C.ar    1  UNL1        0.0844
     16 C         140.5812  144.9338  163.0405 C.ar    1  UNL1        0.0192
     17 C         139.1114  145.1765  163.2154 C.ar    1  UNL1        0.0015
     18 C         138.3926  144.6046  164.4012 C.ar    1  UNL1        0.0001
     19 C         139.1436  143.7899  165.4122 C.ar    1  UNL1        0.0015
     20 C         140.6135  143.5472  165.2374 C.ar    1  UNL1        0.0194
     21 C         141.3646  142.7325  166.2484 C.ar    1  UNL1        0.0246
     22 C         140.9281  142.0462  167.5087 C.ar    1  UNL1        0.0762
     23 C         141.5253  138.0180  161.2538 C.3     1  UNL1        0.0768
     24 C         140.0580  138.1998  161.5066 C.3     1  UNL1        0.0437
     25 C         139.5480  138.3170  162.9124 C.ar    1  UNL1       -0.0208
     26 C         139.2829  137.0808  163.7195 C.ar    1  UNL1       -0.0042
     27 C         138.7729  137.1980  165.1254 C.ar    1  UNL1        0.0008
     28 C         138.5281  138.5514  165.7240 C.ar    1  UNL1        0.0140
     29 C         138.7932  139.7876  164.9168 C.ar    1  UNL1        0.0008
     30 C         139.3032  139.6704  163.5110 C.ar    1  UNL1       -0.0042
     31 C         138.0181  138.6686  167.1297 C.2     1  UNL1        0.0729
     32 O         136.7818  137.9267  167.5434 O.co2   1  UNL1       -0.5446
     33 O         138.7445  139.5277  168.1218 O.co2   1  UNL1       -0.5446
@<TRIPOS>UNITY_ATOM_ATTR
32 1
charge -1
@<TRIPOS>BOND
     1     9    10    1
     2    10    11   ar
     3    11    12   ar
     4    12    13   ar
     5    13     8    1
     6     8     7    1
     7     7     1    1
     8     1     2    1
     9     2     3    1
    10     3     4    1
    11     4    23    1
    12    23    24    1
    13    24    25    1
    14    25    26   ar
    15    26    27   ar
    16    27    28   ar
    17    28    31    1
    18    31    32   ar
    19    31    33   ar
    20    28    29   ar
    21    29    30   ar
    22     4     5    1
    23     5     6    1
    24    13    14   ar
    25    14    15   ar
    26    15    16   ar
    27    16    17   ar
    28    17    18   ar
    29    18    19   ar
    30    19    20   ar
    31    20    21   ar
    32    21    22   ar
    33    22    10   ar
    34    21    12   ar
    35     6     1    1
    36    20    15   ar
    37    30    25   ar
@<TRIPOS>MOLECULE
*****
 33 37 0 0 0
SMALL
GASTEIGER

@<TRIPOS>ATOM
      1 C         137.8645  140.0223  162.3641 C.3     1  UNL1        0.0466
      2 C         137.9555  141.1870  161.4233 C.3     1  UNL1        0.0211
      3 C         138.0393  142.5835  161.9645 C.3     1  UNL1        0.0722
      4 N         138.0319  142.8152  163.4465 N.3     1  UNL1       -0.2724
      5 C         137.9408  141.6504  164.3873 C.3     1  UNL1        0.0722
      6 C         137.8571  140.2540  163.8461 C.3     1  UNL1        0.0211
      7 C         137.7808  138.6259  161.8229 C.3     1  UNL1        0.2071
      8 O         139.0068  137.9605  161.2714 O.3     1  UNL1       -0.4602
      9 C         143.3704  139.9412  157.7900 C.3     1  UNL1        0.1305
     10 N         142.8808  139.5448  159.1513 N.ar    1  UNL1       -0.3228
     11 C         141.5022  139.0565  159.4848 C.ar    1  UNL1        0.0806
     12 C         141.4532  138.7770  160.9577 C.ar    1  UNL1        0.0718
     13 C         140.3551  138.2760  161.8483 C.ar    1  UNL1        0.2262
     14 N         140.6052  138.0904  163.3155 N.ar    1  UNL1       -0.2116
     15 C         141.9535  138.4059  163.8924 C.ar    1  UNL1        0.0844
     16 C         142.2036  138.2203  165.3597 C.ar    1  UNL1        0.0192
     17 C         143.5518  138.5358  165.9364 C.ar    1  UNL1        0.0015
     18 C         144.6499  139.0369  165.0459 C.ar    1  UNL1        0.0001
     19 C         144.3998  139.2224  163.5786 C.ar    1  UNL1        0.0015
     20 C         143.0516  138.9069  163.0019 C.ar    1  UNL1        0.0194
     21 C         142.8014  139.0925  161.5345 C.ar    1  UNL1        0.0246
     22 C         143.6838  139.5670  160.4181 C.ar    1  UNL1        0.0762
     23 C         138.1156  144.2117  163.9877 C.3     1  UNL1        0.0768
     24 C         139.3402  144.6555  164.7316 C.3     1  UNL1        0.0437
     25 C         140.6932  144.1635  164.3103 C.ar    1  UNL1       -0.0208
     26 C         141.5064  144.9541  163.3287 C.ar    1  UNL1       -0.0042
     27 C         142.8594  144.4621  162.9074 C.ar    1  UNL1        0.0008
     28 C         143.3991  143.1796  163.4677 C.ar    1  UNL1        0.0140
     29 C         142.5857  142.3890  164.4494 C.ar    1  UNL1        0.0008
     30 C         141.2328  142.8810  164.8706 C.ar    1  UNL1       -0.0042
     31 C         144.7520  142.6876  163.0464 C.2     1  UNL1        0.0729
     32 O         145.7676  142.3065  164.0825 O.co2   1  UNL1       -0.5446
     33 O         145.0894  142.5767  161.5891 O.co2   1  UNL1       -0.5446
@<TRIPOS>UNITY_ATOM_ATTR
32 1
charge -1
@<TRIPOS>BOND
     1     9    10    1
     2    10    11   ar
     3    11    12   ar
     4    12    13   ar
     5    13     8    1
     6     8     7    1
     7     7     1    1
     8     1     2    1
     9     2     3    1
    10     3     4    1
    11     4    23    1
    12    23    24    1
    13    24    25    1
    14    25    26   ar
    15    26    27   ar
    16    27    28   ar
    17    28    31    1
    18    31    32   ar
    19    31    33   ar
    20    28    29   ar
    21    29    30   ar
    22     4     5    1
    23     5     6    1
    24    13    14   ar
    25    14    15   ar
    26    15    16   ar
    27    16    17   ar
    28    17    18   ar
    29    18    19   ar
    30    19    20   ar
    31    20    21   ar
    32    21    22   ar
    33    22    10   ar
    34    21    12   ar
    35     6     1    1
    36    20    15   ar
    37    30    25   ar
