@<TRIPOS>MOLECULE
*****
 33 36 0 0 0
SMALL
GASTEIGER

@<TRIPOS>ATOM
      1 C         143.5806  139.5664  160.9257 C.ar    1  UNL1        0.0598
      2 C         143.2434  138.6898  162.0952 C.ar    1  UNL1        0.0422
      3 C         143.3651  139.2230  163.4920 C.ar    1  UNL1        0.1484
      4 C         143.8240  140.6329  163.7192 C.ar    1  UNL1        0.0717
      5 C         144.0387  141.4289  164.9723 C.ar    1  UNL1        0.0390
      6 C         144.5085  142.7975  164.5771 C.ar    1  UNL1        0.1234
      7 C         144.8438  143.9194  165.5147 C.3     1  UNL1        0.0725
      8 O         144.5843  142.8474  163.0799 O.2     1  UNL1       -0.4576
      9 C         144.1612  141.5095  162.5496 C.ar    1  UNL1        0.1479
     10 C         144.0395  140.9763  161.1529 C.ar    1  UNL1        0.0422
     11 N         142.6708  137.7836  159.2693 N.am    1  UNL1       -0.2646
     12 C         143.4588  139.0332  159.5289 C.2     1  UNL1        0.2508
     13 O         144.1251  139.7495  158.3920 O.2     1  UNL1       -0.2698
     14 H         142.2335  137.3134  160.0156 H       1  UNL1        0.1566
     15 C         142.1837  135.6507  153.6823 C.3     1  UNL1        0.0538
     16 C         142.3055  136.1839  155.0791 C.ar    1  UNL1        0.0786
     17 C         143.2378  135.5277  156.0538 C.ar    1  UNL1        0.1150
     18 N         143.3597  136.0608  157.4505 N.ar    1  UNL1       -0.2262
     19 C         142.5490  137.2504  157.8726 C.ar    1  UNL1        0.1538
     20 C         141.6167  137.9066  156.8978 C.ar    1  UNL1        0.1328
     21 N         141.4949  137.3733  155.5011 N.ar    1  UNL1       -0.2436
     22 O         143.0278  138.3463  164.6615 O.3     1  UNL1       -0.4534
     23 C         142.2930  138.9160  165.8386 C.ar    1  UNL1        0.1453
     24 C         142.9644  138.9891  167.1780 C.ar    1  UNL1        0.0376
     25 C         142.2296  139.5587  168.3551 C.ar    1  UNL1        0.0076
     26 C         140.8235  140.0552  168.1928 C.ar    1  UNL1        0.0538
     27 C         140.1522  139.9820  166.8534 C.ar    1  UNL1        0.0076
     28 C         140.8869  139.4124  165.6763 C.ar    1  UNL1        0.0376
     29 C         140.0886  140.6248  169.3700 C.2     1  UNL1        0.2491
     30 O         139.2325  139.7353  170.2218 O.2     1  UNL1       -0.2699
     31 N         140.2099  142.0842  169.6951 N.am    1  UNL1       -0.2726
     32 C         139.4751  142.6539  170.8721 C.3     1  UNL1        0.1152
     33 C         141.0661  142.9737  168.8432 C.3     1  UNL1        0.1152
@<TRIPOS>BOND
     1    15    16    1
     2    16    17   ar
     3    17    18   ar
     4    18    19   ar
     5    19    11    1
     6    11    12   am
     7    12    13    2
     8    12     1    1
     9     1     2   ar
    10     2     3   ar
    11     3    22    1
    12    22    23    1
    13    23    24   ar
    14    24    25   ar
    15    25    26   ar
    16    26    29    1
    17    29    30    2
    18    29    31   am
    19    31    32    1
    20    31    33    1
    21    26    27   ar
    22    27    28   ar
    23     3     4   ar
    24     4     5   ar
    25     5     6   ar
    26     6     7    1
    27     6     8   ar
    28     8     9   ar
    29     9    10   ar
    30    19    20   ar
    31    20    21   ar
    32    21    16   ar
    33    10     1   ar
    34    28    23   ar
    35     9     4   ar
    36    11    14    1
@<TRIPOS>MOLECULE
*****
 33 36 0 0 0
SMALL
GASTEIGER

@<TRIPOS>ATOM
      1 C         138.7237  140.0281  160.2689 C.ar    1  UNL1        0.0598
      2 C         138.7157  139.0851  161.4353 C.ar    1  UNL1        0.0422
      3 C         138.4893  139.6096  162.8223 C.ar    1  UNL1        0.1484
      4 C         138.2710  141.0772  163.0427 C.ar    1  UNL1        0.0717
      5 C         138.0243  141.8795  164.2859 C.ar    1  UNL1        0.0390
      6 C         137.8800  143.3185  163.8876 C.ar    1  UNL1        0.1234
      7 C         137.6233  144.4686  164.8157 C.3     1  UNL1        0.0725
      8 O         138.0374  143.4054  162.3985 O.2     1  UNL1       -0.4576
      9 C         138.2791  142.0202  161.8763 C.ar    1  UNL1        0.1479
     10 C         138.5054  141.4957  160.4893 C.ar    1  UNL1        0.0422
     11 N         139.9624  138.4224  158.6449 N.am    1  UNL1       -0.2646
     12 C         138.9501  139.5036  158.8818 C.2     1  UNL1        0.2508
     13 O         138.1642  140.0603  157.7320 O.2     1  UNL1       -0.2698
     14 H         140.4783  138.0570  159.3996 H       1  UNL1        0.1566
     15 C         140.8681  136.3244  153.0971 C.3     1  UNL1        0.0538
     16 C         140.6416  136.8489  154.4841 C.ar    1  UNL1        0.0786
     17 C         139.2591  136.8590  155.0656 C.ar    1  UNL1        0.1150
     18 N         139.0326  137.3835  156.4526 N.ar    1  UNL1       -0.2262
     19 C         140.1888  137.8979  157.2579 C.ar    1  UNL1        0.1538
     20 C         141.5714  137.8878  156.6763 C.ar    1  UNL1        0.1328
     21 N         141.7979  137.3633  155.2894 N.ar    1  UNL1       -0.2436
     22 O         138.4812  138.6665  163.9887 O.3     1  UNL1       -0.4534
     23 C         139.1328  139.0648  165.2797 C.ar    1  UNL1        0.1453
     24 C         140.6087  139.3288  165.3247 C.ar    1  UNL1        0.0376
     25 C         141.2603  139.7271  166.6157 C.ar    1  UNL1        0.0076
     26 C         140.4361  139.8614  167.8617 C.ar    1  UNL1        0.0538
     27 C         138.9602  139.5974  167.8167 C.ar    1  UNL1        0.0076
     28 C         138.3085  139.1991  166.5258 C.ar    1  UNL1        0.0376
     29 C         141.0877  140.2597  169.1528 C.2     1  UNL1        0.2491
     30 O         141.6513  139.2098  170.0638 O.2     1  UNL1       -0.2699
     31 N         141.1756  141.7081  169.5329 N.am    1  UNL1       -0.2726
     32 C         141.8271  142.1066  170.8239 C.3     1  UNL1        0.1152
     33 C         140.6120  142.7581  168.6219 C.3     1  UNL1        0.1152
@<TRIPOS>BOND
     1    15    16    1
     2    16    17   ar
     3    17    18   ar
     4    18    19   ar
     5    19    11    1
     6    11    12   am
     7    12    13    2
     8    12     1    1
     9     1     2   ar
    10     2     3   ar
    11     3    22    1
    12    22    23    1
    13    23    24   ar
    14    24    25   ar
    15    25    26   ar
    16    26    29    1
    17    29    30    2
    18    29    31   am
    19    31    32    1
    20    31    33    1
    21    26    27   ar
    22    27    28   ar
    23     3     4   ar
    24     4     5   ar
    25     5     6   ar
    26     6     7    1
    27     6     8   ar
    28     8     9   ar
    29     9    10   ar
    30    19    20   ar
    31    20    21   ar
    32    21    16   ar
    33    10     1   ar
    34    28    23   ar
    35     9     4   ar
    36    11    14    1
@<TRIPOS>MOLECULE
*****
 33 36 0 0 0
SMALL
GASTEIGER

@<TRIPOS>ATOM
      1 C         142.4372  140.1367  160.1548 C.ar    1  UNL1        0.0598
      2 C         143.3522  140.2944  161.3328 C.ar    1  UNL1        0.0422
      3 C         143.2548  141.5144  162.2002 C.ar    1  UNL1        0.1484
      4 C         142.2424  142.5766  161.8895 C.ar    1  UNL1        0.0717
      5 C         141.9158  143.8785  162.5591 C.ar    1  UNL1        0.0390
      6 C         140.7988  144.5254  161.7949 C.ar    1  UNL1        0.1234
      7 C         140.1580  145.8430  162.1163 C.3     1  UNL1        0.0725
      8 O         140.4352  143.6233  160.6530 O.2     1  UNL1       -0.4576
      9 C         141.3273  142.4189  160.7114 C.ar    1  UNL1        0.1479
     10 C         141.4247  141.1990  159.8441 C.ar    1  UNL1        0.0422
     11 N         142.2794  139.0225  157.8131 N.am    1  UNL1       -0.2646
     12 C         142.5346  138.9168  159.2874 C.2     1  UNL1        0.2508
     13 O         142.8871  137.5912  159.8944 O.2     1  UNL1       -0.2698
     14 H         142.0480  139.8926  157.4148 H       1  UNL1        0.1566
     15 C         142.6687  134.1430  154.3435 C.3     1  UNL1        0.0538
     16 C         142.5714  135.3629  155.2109 C.ar    1  UNL1        0.0786
     17 C         143.8089  136.1346  155.5614 C.ar    1  UNL1        0.1150
     18 N         143.7117  137.3545  156.4288 N.ar    1  UNL1       -0.2262
     19 C         142.3767  137.8027  156.9457 C.ar    1  UNL1        0.1538
     20 C         141.1392  137.0309  156.5952 C.ar    1  UNL1        0.1328
     21 N         141.2365  135.8110  155.7278 N.ar    1  UNL1       -0.2436
     22 O         144.1699  141.6720  163.3783 O.3     1  UNL1       -0.4534
     23 C         143.6823  141.3375  164.7568 C.ar    1  UNL1        0.1453
     24 C         143.4894  142.4275  165.7690 C.ar    1  UNL1        0.0376
     25 C         143.0018  142.0931  167.1476 C.ar    1  UNL1        0.0076
     26 C         142.7071  140.6687  167.5138 C.ar    1  UNL1        0.0538
     27 C         142.9001  139.5787  166.5016 C.ar    1  UNL1        0.0076
     28 C         143.3877  139.9131  165.1230 C.ar    1  UNL1        0.0376
     29 C         142.2195  140.3341  168.8924 C.2     1  UNL1        0.2491
     30 O         143.2040  140.0582  169.9899 O.2     1  UNL1       -0.2699
     31 N         140.7472  140.2755  169.1734 N.am    1  UNL1       -0.2726
     32 C         140.2595  139.9409  170.5518 C.3     1  UNL1        0.1152
     33 C         139.7626  140.5514  168.0759 C.3     1  UNL1        0.1152
@<TRIPOS>BOND
     1    15    16    1
     2    16    17   ar
     3    17    18   ar
     4    18    19   ar
     5    19    11    1
     6    11    12   am
     7    12    13    2
     8    12     1    1
     9     1     2   ar
    10     2     3   ar
    11     3    22    1
    12    22    23    1
    13    23    24   ar
    14    24    25   ar
    15    25    26   ar
    16    26    29    1
    17    29    30    2
    18    29    31   am
    19    31    32    1
    20    31    33    1
    21    26    27   ar
    22    27    28   ar
    23     3     4   ar
    24     4     5   ar
    25     5     6   ar
    26     6     7    1
    27     6     8   ar
    28     8     9   ar
    29     9    10   ar
    30    19    20   ar
    31    20    21   ar
    32    21    16   ar
    33    10     1   ar
    34    28    23   ar
    35     9     4   ar
    36    11    14    1
@<TRIPOS>MOLECULE
*****
 33 36 0 0 0
SMALL
GASTEIGER

@<TRIPOS>ATOM
      1 C         143.7341  142.3965  158.9852 C.ar    1  UNL1        0.0598
      2 C         143.0685  141.4268  158.0544 C.ar    1  UNL1        0.0422
      3 C         143.8074  140.9100  156.8556 C.ar    1  UNL1        0.1484
      4 C         145.2120  141.3632  156.5877 C.ar    1  UNL1        0.0717
      5 C         146.1833  141.0286  155.4947 C.ar    1  UNL1        0.0390
      6 C         147.4492  141.7916  155.7501 C.ar    1  UNL1        0.1234
      7 C         148.6868  141.7550  154.9033 C.3     1  UNL1        0.0725
      8 O         147.2603  142.5978  157.0008 O.2     1  UNL1       -0.4576
      9 C         145.8776  142.3330  157.5185 C.ar    1  UNL1        0.1479
     10 C         145.1386  142.8497  158.7173 C.ar    1  UNL1        0.0422
     11 N         141.5216  142.6677  160.3199 N.am    1  UNL1       -0.2646
     12 C         142.9951  142.9132  160.1840 C.2     1  UNL1        0.2508
     13 O         143.7296  143.6754  161.2467 O.2     1  UNL1       -0.2698
     14 H         141.0395  142.1674  159.6224 H       1  UNL1        0.1566
     15 C         138.5657  144.7344  165.1149 C.3     1  UNL1        0.0538
     16 C         139.3047  144.2177  163.9161 C.ar    1  UNL1        0.0786
     17 C         139.5760  145.1258  162.7535 C.ar    1  UNL1        0.1150
     18 N         140.3150  144.6092  161.5547 N.ar    1  UNL1       -0.2262
     19 C         140.7826  143.1844  161.5186 C.ar    1  UNL1        0.1538
     20 C         140.5113  142.2763  162.6813 C.ar    1  UNL1        0.1328
     21 N         139.7723  142.7929  163.8800 N.ar    1  UNL1       -0.2436
     22 O         143.1417  139.9402  155.9248 O.3     1  UNL1       -0.4534
     23 C         143.2379  138.4658  156.1836 C.ar    1  UNL1        0.1453
     24 C         144.0663  137.5988  155.2824 C.ar    1  UNL1        0.0376
     25 C         144.1625  136.1244  155.5411 C.ar    1  UNL1        0.0076
     26 C         143.4305  135.5171  156.7009 C.ar    1  UNL1        0.0538
     27 C         142.6021  136.3841  157.6021 C.ar    1  UNL1        0.0076
     28 C         142.5059  137.8585  157.3434 C.ar    1  UNL1        0.0376
     29 C         143.5267  134.0426  156.9597 C.2     1  UNL1        0.2491
     30 O         144.5752  133.5115  157.8915 O.2     1  UNL1       -0.2699
     31 N         142.5742  133.0994  156.2865 N.am    1  UNL1       -0.2726
     32 C         142.6703  131.6250  156.5452 C.3     1  UNL1        0.1152
     33 C         141.5256  133.6306  155.3547 C.3     1  UNL1        0.1152
@<TRIPOS>BOND
     1    15    16    1
     2    16    17   ar
     3    17    18   ar
     4    18    19   ar
     5    19    11    1
     6    11    12   am
     7    12    13    2
     8    12     1    1
     9     1     2   ar
    10     2     3   ar
    11     3    22    1
    12    22    23    1
    13    23    24   ar
    14    24    25   ar
    15    25    26   ar
    16    26    29    1
    17    29    30    2
    18    29    31   am
    19    31    32    1
    20    31    33    1
    21    26    27   ar
    22    27    28   ar
    23     3     4   ar
    24     4     5   ar
    25     5     6   ar
    26     6     7    1
    27     6     8   ar
    28     8     9   ar
    29     9    10   ar
    30    19    20   ar
    31    20    21   ar
    32    21    16   ar
    33    10     1   ar
    34    28    23   ar
    35     9     4   ar
    36    11    14    1
@<TRIPOS>MOLECULE
*****
 33 36 0 0 0
SMALL
GASTEIGER

@<TRIPOS>ATOM
      1 C         139.7257  140.2813  160.3209 C.ar    1  UNL1        0.0598
      2 C         138.9066  140.1551  161.5711 C.ar    1  UNL1        0.0422
      3 C         138.5729  141.3764  162.3756 C.ar    1  UNL1        0.1484
      4 C         139.0583  142.7238  161.9298 C.ar    1  UNL1        0.0717
      5 C         138.8884  144.0953  162.5131 C.ar    1  UNL1        0.0390
      6 C         139.6026  145.0691  161.6234 C.ar    1  UNL1        0.1234
      7 C         139.6901  146.5521  161.8304 C.3     1  UNL1        0.0725
      8 O         140.2138  144.2995  160.4902 O.2     1  UNL1       -0.4576
      9 C         139.8774  142.8500  160.6796 C.ar    1  UNL1        0.1479
     10 C         140.2111  141.6287  159.8751 C.ar    1  UNL1        0.0422
     11 N         140.9368  139.1765  158.3054 N.am    1  UNL1       -0.2646
     12 C         140.0595  139.0600  159.5164 C.2     1  UNL1        0.2508
     13 O         139.5160  137.7225  159.9229 O.2     1  UNL1       -0.2698
     14 H         141.2936  140.0544  158.0385 H       1  UNL1        0.1566
     15 C         142.2720  134.2917  155.0872 C.3     1  UNL1        0.0538
     16 C         141.9382  135.5129  155.8918 C.ar    1  UNL1        0.0786
     17 C         142.8962  136.0096  156.9335 C.ar    1  UNL1        0.1150
     18 N         142.5626  137.2308  157.7381 N.ar    1  UNL1       -0.2262
     19 C         141.2706  137.9553  157.5008 C.ar    1  UNL1        0.1538
     20 C         140.3126  137.4585  156.4590 C.ar    1  UNL1        0.1328
     21 N         140.6464  136.2374  155.6545 N.ar    1  UNL1       -0.2436
     22 O         137.7537  141.2501  163.6259 O.3     1  UNL1       -0.4534
     23 C         138.4199  140.9215  164.9290 C.ar    1  UNL1        0.1453
     24 C         138.1537  139.6047  165.5962 C.ar    1  UNL1        0.0376
     25 C         138.8198  139.2759  166.8994 C.ar    1  UNL1        0.0076
     26 C         139.7522  140.2640  167.5352 C.ar    1  UNL1        0.0538
     27 C         140.0185  141.5808  166.8680 C.ar    1  UNL1        0.0076
     28 C         139.3523  141.9095  165.5649 C.ar    1  UNL1        0.0376
     29 C         140.4185  139.9353  168.8384 C.2     1  UNL1        0.2491
     30 O         139.6400  140.0090  170.1184 O.2     1  UNL1       -0.2699
     31 N         141.8633  139.5330  168.8615 N.am    1  UNL1       -0.2726
     32 C         142.5297  139.2043  170.1645 C.3     1  UNL1        0.1152
     33 C         142.6419  139.4592  167.5815 C.3     1  UNL1        0.1152
@<TRIPOS>BOND
     1    15    16    1
     2    16    17   ar
     3    17    18   ar
     4    18    19   ar
     5    19    11    1
     6    11    12   am
     7    12    13    2
     8    12     1    1
     9     1     2   ar
    10     2     3   ar
    11     3    22    1
    12    22    23    1
    13    23    24   ar
    14    24    25   ar
    15    25    26   ar
    16    26    29    1
    17    29    30    2
    18    29    31   am
    19    31    32    1
    20    31    33    1
    21    26    27   ar
    22    27    28   ar
    23     3     4   ar
    24     4     5   ar
    25     5     6   ar
    26     6     7    1
    27     6     8   ar
    28     8     9   ar
    29     9    10   ar
    30    19    20   ar
    31    20    21   ar
    32    21    16   ar
    33    10     1   ar
    34    28    23   ar
    35     9     4   ar
    36    11    14    1
@<TRIPOS>MOLECULE
*****
 33 36 0 0 0
SMALL
GASTEIGER

@<TRIPOS>ATOM
      1 C         143.3591  139.7288  159.6941 C.ar    1  UNL1        0.0598
      2 C         144.1789  139.6058  160.9442 C.ar    1  UNL1        0.0422
      3 C         143.5513  139.0894  162.2050 C.ar    1  UNL1        0.1484
      4 C         142.1038  138.6960  162.2155 C.ar    1  UNL1        0.0717
      5 C         141.2178  138.1585  163.3000 C.ar    1  UNL1        0.0390
      6 C         139.8503  137.9492  162.7200 C.ar    1  UNL1        0.1234
      7 C         138.6523  137.4240  163.4540 C.3     1  UNL1        0.0725
      8 O         139.8913  138.3575  161.2772 O.2     1  UNL1       -0.4576
      9 C         141.2840  138.8190  160.9654 C.ar    1  UNL1        0.1479
     10 C         141.9117  139.3354  159.7047 C.ar    1  UNL1        0.0422
     11 N         144.4666  141.6645  158.3613 N.am    1  UNL1       -0.2646
     12 C         143.9867  140.2452  158.4333 C.2     1  UNL1        0.2508
     13 O         144.1344  139.3423  157.2447 O.2     1  UNL1       -0.2698
     14 H         144.3697  142.2571  159.1415 H       1  UNL1        0.1566
     15 C         146.9770  143.7302  153.3184 C.3     1  UNL1        0.0538
     16 C         146.3494  143.2138  154.5792 C.ar    1  UNL1        0.0786
     17 C         147.2137  142.8153  155.7385 C.ar    1  UNL1        0.1150
     18 N         146.5862  142.2989  156.9993 N.ar    1  UNL1       -0.2262
     19 C         145.0942  142.1809  157.1006 C.ar    1  UNL1        0.1538
     20 C         144.2299  142.5794  155.9412 C.ar    1  UNL1        0.1328
     21 N         144.8575  143.0958  154.6805 N.ar    1  UNL1       -0.2436
     22 O         144.3711  138.9665  163.4551 O.3     1  UNL1       -0.4534
     23 C         143.8054  139.4143  164.7701 C.ar    1  UNL1        0.1453
     24 C         143.4002  140.8455  164.9638 C.ar    1  UNL1        0.0376
     25 C         142.8344  141.2934  166.2788 C.ar    1  UNL1        0.0076
     26 C         142.6738  140.3101  167.4001 C.ar    1  UNL1        0.0538
     27 C         143.0791  138.8789  167.2064 C.ar    1  UNL1        0.0076
     28 C         143.6449  138.4310  165.8914 C.ar    1  UNL1        0.0376
     29 C         142.1081  140.7579  168.7152 C.2     1  UNL1        0.2491
     30 O         143.0192  141.2886  169.7821 O.2     1  UNL1       -0.2699
     31 N         140.6311  140.6750  168.9634 N.am    1  UNL1       -0.2726
     32 C         140.0652  141.1227  170.2784 C.3     1  UNL1        0.1152
     33 C         139.7199  140.1443  167.8966 C.3     1  UNL1        0.1152
@<TRIPOS>BOND
     1    15    16    1
     2    16    17   ar
     3    17    18   ar
     4    18    19   ar
     5    19    11    1
     6    11    12   am
     7    12    13    2
     8    12     1    1
     9     1     2   ar
    10     2     3   ar
    11     3    22    1
    12    22    23    1
    13    23    24   ar
    14    24    25   ar
    15    25    26   ar
    16    26    29    1
    17    29    30    2
    18    29    31   am
    19    31    32    1
    20    31    33    1
    21    26    27   ar
    22    27    28   ar
    23     3     4   ar
    24     4     5   ar
    25     5     6   ar
    26     6     7    1
    27     6     8   ar
    28     8     9   ar
    29     9    10   ar
    30    19    20   ar
    31    20    21   ar
    32    21    16   ar
    33    10     1   ar
    34    28    23   ar
    35     9     4   ar
    36    11    14    1
@<TRIPOS>MOLECULE
*****
 33 36 0 0 0
SMALL
GASTEIGER

@<TRIPOS>ATOM
      1 C         141.2201  143.7884  159.3652 C.ar    1  UNL1        0.0598
      2 C         142.0708  143.9461  160.5905 C.ar    1  UNL1        0.0422
      3 C         142.1318  142.8455  161.6079 C.ar    1  UNL1        0.1484
      4 C         141.3422  141.5873  161.3999 C.ar    1  UNL1        0.0717
      5 C         141.2050  140.3408  162.2229 C.ar    1  UNL1        0.0390
      6 C         140.2695  139.4128  161.5062 C.ar    1  UNL1        0.1234
      7 C         139.8488  138.0509  161.9735 C.3     1  UNL1        0.0725
      8 O         139.8286  140.0857  160.2402 O.2     1  UNL1       -0.4576
      9 C         140.4915  141.4296  160.1745 C.ar    1  UNL1        0.1479
     10 C         140.4305  142.5302  159.1571 C.ar    1  UNL1        0.0422
     11 N         140.0820  144.8864  157.3038 N.am    1  UNL1       -0.2646
     12 C         141.1591  144.8890  158.3478 C.2     1  UNL1        0.2508
     13 O         142.1751  145.9922  158.3743 O.2     1  UNL1       -0.2698
     14 H         139.4151  144.1623  157.2864 H       1  UNL1        0.1566
     15 C         139.8376  149.2884  153.2341 C.3     1  UNL1        0.0538
     16 C         139.8987  148.1879  154.2516 C.ar    1  UNL1        0.0786
     17 C         139.0787  148.2783  155.5043 C.ar    1  UNL1        0.1150
     18 N         139.1397  147.1778  156.5218 N.ar    1  UNL1       -0.2262
     19 C         140.0209  145.9869  156.2864 C.ar    1  UNL1        0.1538
     20 C         140.8409  145.8965  155.0337 C.ar    1  UNL1        0.1328
     21 N         140.7798  146.9970  154.0163 N.ar    1  UNL1       -0.2436
     22 O         142.9825  143.0033  162.8333 O.3     1  UNL1       -0.4534
     23 C         142.3762  142.8312  164.1944 C.ar    1  UNL1        0.1453
     24 C         140.9982  143.3539  164.4731 C.ar    1  UNL1        0.0376
     25 C         140.3918  143.1819  165.8342 C.ar    1  UNL1        0.0076
     26 C         141.1635  142.4872  166.9167 C.ar    1  UNL1        0.0538
     27 C         142.5416  141.9644  166.6380 C.ar    1  UNL1        0.0076
     28 C         143.1479  142.1364  165.2769 C.ar    1  UNL1        0.0376
     29 C         140.5572  142.3151  168.2779 C.2     1  UNL1        0.2491
     30 O         140.6633  143.4162  169.2909 O.2     1  UNL1       -0.2699
     31 N         139.8448  141.0418  168.6260 N.am    1  UNL1       -0.2726
     32 C         139.2385  140.8696  169.9872 C.3     1  UNL1        0.1152
     33 C         139.7387  139.9406  167.6130 C.3     1  UNL1        0.1152
@<TRIPOS>BOND
     1    15    16    1
     2    16    17   ar
     3    17    18   ar
     4    18    19   ar
     5    19    11    1
     6    11    12   am
     7    12    13    2
     8    12     1    1
     9     1     2   ar
    10     2     3   ar
    11     3    22    1
    12    22    23    1
    13    23    24   ar
    14    24    25   ar
    15    25    26   ar
    16    26    29    1
    17    29    30    2
    18    29    31   am
    19    31    32    1
    20    31    33    1
    21    26    27   ar
    22    27    28   ar
    23     3     4   ar
    24     4     5   ar
    25     5     6   ar
    26     6     7    1
    27     6     8   ar
    28     8     9   ar
    29     9    10   ar
    30    19    20   ar
    31    20    21   ar
    32    21    16   ar
    33    10     1   ar
    34    28    23   ar
    35     9     4   ar
    36    11    14    1
@<TRIPOS>MOLECULE
*****
 33 36 0 0 0
SMALL
GASTEIGER

@<TRIPOS>ATOM
      1 C         144.4036  141.7291  158.3130 C.ar    1  UNL1        0.0598
      2 C         143.9156  140.4812  158.9869 C.ar    1  UNL1        0.0422
      3 C         142.9272  140.5735  160.1115 C.ar    1  UNL1        0.1484
      4 C         142.4269  141.9139  160.5620 C.ar    1  UNL1        0.0717
      5 C         141.4586  142.3149  161.6352 C.ar    1  UNL1        0.0390
      6 C         141.3482  143.8107  161.6244 C.ar    1  UNL1        0.1234
      7 C         140.4887  144.6380  162.5338 C.3     1  UNL1        0.0725
      8 O         142.2482  144.3342  160.5446 O.2     1  UNL1       -0.4576
      9 C         142.9149  143.1619  159.8880 C.ar    1  UNL1        0.1479
     10 C         143.9032  143.0695  158.7635 C.ar    1  UNL1        0.0422
     11 N         146.2329  142.8260  156.8296 N.am    1  UNL1       -0.2646
     12 C         145.3920  141.6368  157.1883 C.2     1  UNL1        0.2508
     13 O         145.5394  140.3555  156.4227 O.2     1  UNL1       -0.2698
     14 H         146.1361  143.6670  157.3321 H       1  UNL1        0.1566
     15 C         150.1865  142.4570  152.3314 C.3     1  UNL1        0.0538
     16 C         149.1980  142.5493  153.4559 C.ar    1  UNL1        0.0786
     17 C         147.9298  143.3301  153.2776 C.ar    1  UNL1        0.1150
     18 N         146.9414  143.4224  154.4021 N.ar    1  UNL1       -0.2262
     19 C         147.2213  142.7338  155.7050 C.ar    1  UNL1        0.1538
     20 C         148.4895  141.9529  155.8833 C.ar    1  UNL1        0.1328
     21 N         149.4779  141.8607  154.7588 N.ar    1  UNL1       -0.2436
     22 O         142.4393  139.3254  160.7855 O.3     1  UNL1       -0.4534
     23 C         142.6601  139.1320  162.2565 C.ar    1  UNL1        0.1453
     24 C         143.8189  139.8005  162.9351 C.ar    1  UNL1        0.0376
     25 C         144.0398  139.6072  164.4061 C.ar    1  UNL1        0.0076
     26 C         143.1020  138.7454  165.1985 C.ar    1  UNL1        0.0538
     27 C         141.9432  138.0769  164.5198 C.ar    1  UNL1        0.0076
     28 C         141.7223  138.2702  163.0489 C.ar    1  UNL1        0.0376
     29 C         143.3228  138.5520  166.6695 C.2     1  UNL1        0.2491
     30 O         144.3170  137.5377  167.1518 O.2     1  UNL1       -0.2699
     31 N         142.5493  139.3731  167.6583 N.am    1  UNL1       -0.2726
     32 C         142.7701  139.1798  169.1293 C.3     1  UNL1        0.1152
     33 C         141.5551  140.3875  167.1760 C.3     1  UNL1        0.1152
@<TRIPOS>BOND
     1    15    16    1
     2    16    17   ar
     3    17    18   ar
     4    18    19   ar
     5    19    11    1
     6    11    12   am
     7    12    13    2
     8    12     1    1
     9     1     2   ar
    10     2     3   ar
    11     3    22    1
    12    22    23    1
    13    23    24   ar
    14    24    25   ar
    15    25    26   ar
    16    26    29    1
    17    29    30    2
    18    29    31   am
    19    31    32    1
    20    31    33    1
    21    26    27   ar
    22    27    28   ar
    23     3     4   ar
    24     4     5   ar
    25     5     6   ar
    26     6     7    1
    27     6     8   ar
    28     8     9   ar
    29     9    10   ar
    30    19    20   ar
    31    20    21   ar
    32    21    16   ar
    33    10     1   ar
    34    28    23   ar
    35     9     4   ar
    36    11    14    1
@<TRIPOS>MOLECULE
*****
 33 36 0 0 0
SMALL
GASTEIGER

@<TRIPOS>ATOM
      1 C         141.2080  138.5265  157.6428 C.ar    1  UNL1        0.0598
      2 C         139.9617  138.3783  158.4642 C.ar    1  UNL1        0.0422
      3 C         139.3715  139.5725  159.1539 C.ar    1  UNL1        0.1484
      4 C         140.0277  140.9149  159.0221 C.ar    1  UNL1        0.0717
      5 C         139.6788  142.2619  159.5823 C.ar    1  UNL1        0.0390
      6 C         140.7095  143.2426  159.1071 C.ar    1  UNL1        0.1234
      7 C         140.7476  144.7071  159.4292 C.3     1  UNL1        0.0725
      8 O         141.6954  142.5017  158.2532 O.2     1  UNL1       -0.4576
      9 C         141.2740  141.0630  158.2007 C.ar    1  UNL1        0.1479
     10 C         141.8642  139.8689  157.5111 C.ar    1  UNL1        0.0422
     11 N         140.9044  136.3563  156.2470 N.am    1  UNL1       -0.2646
     12 C         141.7982  137.3323  156.9531 C.2     1  UNL1        0.2508
     13 O         143.2821  137.1140  156.9696 O.2     1  UNL1       -0.2698
     14 H         139.9304  136.4996  156.2362 H       1  UNL1        0.1566
     15 C         143.2649  131.5796  153.4882 C.3     1  UNL1        0.0538
     16 C         142.6748  132.7738  154.1779 C.ar    1  UNL1        0.0786
     17 C         142.7592  132.8955  155.6705 C.ar    1  UNL1        0.1150
     18 N         142.1691  134.0896  156.3603 N.ar    1  UNL1       -0.2262
     19 C         141.4945  135.1622  155.5573 C.ar    1  UNL1        0.1538
     20 C         141.4101  135.0404  154.0646 C.ar    1  UNL1        0.1328
     21 N         142.0002  133.8463  153.3750 N.ar    1  UNL1       -0.2436
     22 O         138.1251  139.4242  159.9752 O.3     1  UNL1       -0.4534
     23 C         138.2115  139.4057  161.4726 C.ar    1  UNL1        0.1453
     24 C         138.7931  138.2152  162.1756 C.ar    1  UNL1        0.0376
     25 C         138.8795  138.1966  163.6730 C.ar    1  UNL1        0.0076
     26 C         138.3843  139.3686  164.4674 C.ar    1  UNL1        0.0538
     27 C         137.8026  140.5592  163.7644 C.ar    1  UNL1        0.0076
     28 C         137.7162  140.5778  162.2670 C.ar    1  UNL1        0.0376
     29 C         138.4707  139.3502  165.9648 C.2     1  UNL1        0.2491
     30 O         137.4187  138.6446  166.7682 O.2     1  UNL1       -0.2699
     31 N         139.6091  140.0375  166.6588 N.am    1  UNL1       -0.2726
     32 C         139.6955  140.0191  168.1562 C.3     1  UNL1        0.1152
     33 C         140.6610  140.7432  165.8555 C.3     1  UNL1        0.1152
@<TRIPOS>BOND
     1    15    16    1
     2    16    17   ar
     3    17    18   ar
     4    18    19   ar
     5    19    11    1
     6    11    12   am
     7    12    13    2
     8    12     1    1
     9     1     2   ar
    10     2     3   ar
    11     3    22    1
    12    22    23    1
    13    23    24   ar
    14    24    25   ar
    15    25    26   ar
    16    26    29    1
    17    29    30    2
    18    29    31   am
    19    31    32    1
    20    31    33    1
    21    26    27   ar
    22    27    28   ar
    23     3     4   ar
    24     4     5   ar
    25     5     6   ar
    26     6     7    1
    27     6     8   ar
    28     8     9   ar
    29     9    10   ar
    30    19    20   ar
    31    20    21   ar
    32    21    16   ar
    33    10     1   ar
    34    28    23   ar
    35     9     4   ar
    36    11    14    1
