@<TRIPOS>MOLECULE
*****
 28 30 0 0 0
SMALL
GASTEIGER

@<TRIPOS>ATOM
      1 N         139.3583  140.2076  169.3537 N.ar    1  UNL1       -0.1495
      2 N         138.1215  139.3812  169.5472 N.ar    1  UNL1       -0.0450
      3 N         137.6948  138.8644  168.2052 N.ar    1  UNL1       -0.1077
      4 C         138.6679  139.3714  167.1824 C.ar    1  UNL1        0.2058
      5 N         139.6960  140.2016  167.8922 N.ar    1  UNL1       -0.1297
      6 C         138.6210  139.0966  165.7085 C.ar    1  UNL1        0.0395
      7 C         138.2177  140.1824  164.7555 C.ar    1  UNL1        0.0063
      8 C         138.1709  139.9075  163.2817 C.ar    1  UNL1        0.0376
      9 C         138.5274  138.5467  162.7609 C.ar    1  UNL1        0.1453
     10 C         138.9307  137.4609  163.7139 C.ar    1  UNL1        0.0376
     11 C         138.9775  137.7358  165.1877 C.ar    1  UNL1        0.0063
     12 O         138.4805  138.2718  161.2870 O.3     1  UNL1       -0.4535
     13 C         138.9344  139.3192  160.3139 C.ar    1  UNL1        0.1454
     14 C         137.9235  140.1098  159.5372 C.ar    1  UNL1        0.0384
     15 C         138.3775  141.1572  158.5641 C.ar    1  UNL1        0.0145
     16 C         139.8422  141.4141  158.3677 C.ar    1  UNL1        0.0579
     17 CL        140.2960  142.4615  157.3946 Cl      1  UNL1       -0.0822
     18 C         140.8530  140.6236  159.1444 C.ar    1  UNL1        0.0145
     19 C         140.3991  139.5761  160.1175 C.ar    1  UNL1        0.0384
     20 C         140.1232  140.9158  170.4324 C.3     1  UNL1        0.1670
     21 N         139.2279  143.2347  171.1881 N.3     1  UNL1       -0.3202
     22 C         140.2220  142.4125  170.4227 C.3     1  UNL1        0.0831
     23 H         139.4437  144.2247  171.0712 H       1  UNL1        0.1189
     24 H         139.2751  142.9910  172.1775 H       1  UNL1        0.1189
     25 C         141.3148  143.0870  169.6476 C.3     1  UNL1        0.0593
     26 C         142.7402  142.9632  170.0982 C.2     1  UNL1        0.0517
     27 O         143.2886  143.9134  171.1211 O.co2   1  UNL1       -0.5491
     28 O         143.6171  141.8893  169.5259 O.co2   1  UNL1       -0.5491
@<TRIPOS>UNITY_ATOM_ATTR
27 1
charge -1
@<TRIPOS>BOND
     1    22    21    1
     2    22    25    1
     3    25    26    1
     4    26    27   ar
     5    26    28   ar
     6    22    20    1
     7    20     1    1
     8     1     2   ar
     9     2     3   ar
    10     3     4   ar
    11     4     6    1
    12     6     7   ar
    13     7     8   ar
    14     8     9   ar
    15     9    12    1
    16    12    13    1
    17    13    14   ar
    18    14    15   ar
    19    15    16   ar
    20    16    17    1
    21    16    18   ar
    22    18    19   ar
    23     9    10   ar
    24    10    11   ar
    25     4     5   ar
    26     5     1   ar
    27    11     6   ar
    28    19    13   ar
    29    21    23    1
    30    21    24    1
@<TRIPOS>MOLECULE
*****
 28 30 0 0 0
SMALL
GASTEIGER

@<TRIPOS>ATOM
      1 N         139.5650  140.6032  169.2176 N.ar    1  UNL1       -0.1495
      2 N         138.4428  139.6581  169.5299 N.ar    1  UNL1       -0.0450
      3 N         137.9892  139.0357  168.2426 N.ar    1  UNL1       -0.1077
      4 C         138.8311  139.5961  167.1348 C.ar    1  UNL1        0.2058
      5 N         139.8049  140.5649  167.7374 N.ar    1  UNL1       -0.1297
      6 C         138.7188  139.2488  165.6799 C.ar    1  UNL1        0.0395
      7 C         139.1086  137.8811  165.2031 C.ar    1  UNL1        0.0063
      8 C         138.9963  137.5338  163.7482 C.ar    1  UNL1        0.0376
      9 C         138.4941  138.5542  162.7701 C.ar    1  UNL1        0.1453
     10 C         138.1042  139.9219  163.2469 C.ar    1  UNL1        0.0376
     11 C         138.2166  140.2692  164.7018 C.ar    1  UNL1        0.0063
     12 O         138.3818  138.2068  161.3152 O.3     1  UNL1       -0.4535
     13 C         139.4014  138.7182  160.3411 C.ar    1  UNL1        0.1454
     14 C         140.8593  138.4514  160.5722 C.ar    1  UNL1        0.0384
     15 C         141.8789  138.9629  159.5981 C.ar    1  UNL1        0.0145
     16 C         141.4406  139.7410  158.3929 C.ar    1  UNL1        0.0579
     17 CL        142.4602  140.2524  157.4189 Cl      1  UNL1       -0.0822
     18 C         139.9827  140.0078  158.1619 C.ar    1  UNL1        0.0145
     19 C         138.9631  139.4964  159.1359 C.ar    1  UNL1        0.0384
     20 C         140.3154  141.4397  170.2111 C.3     1  UNL1        0.1670
     21 N         142.0128  140.6967  172.0323 N.3     1  UNL1       -0.3202
     22 C         141.7111  141.0603  170.6086 C.3     1  UNL1        0.0831
     23 H         143.0027  140.4680  172.1223 H       1  UNL1        0.1189
     24 H         141.4513  139.8894  172.3033 H       1  UNL1        0.1189
     25 C         142.8052  141.0445  169.5825 C.3     1  UNL1        0.0593
     26 C         143.5051  142.3186  169.2128 C.2     1  UNL1        0.0517
     27 O         144.0805  143.1964  170.2845 O.co2   1  UNL1       -0.5491
     28 O         143.6296  142.7149  167.7716 O.co2   1  UNL1       -0.5491
@<TRIPOS>UNITY_ATOM_ATTR
27 1
charge -1
@<TRIPOS>BOND
     1    22    21    1
     2    22    25    1
     3    25    26    1
     4    26    27   ar
     5    26    28   ar
     6    22    20    1
     7    20     1    1
     8     1     2   ar
     9     2     3   ar
    10     3     4   ar
    11     4     6    1
    12     6     7   ar
    13     7     8   ar
    14     8     9   ar
    15     9    12    1
    16    12    13    1
    17    13    14   ar
    18    14    15   ar
    19    15    16   ar
    20    16    17    1
    21    16    18   ar
    22    18    19   ar
    23     9    10   ar
    24    10    11   ar
    25     4     5   ar
    26     5     1   ar
    27    11     6   ar
    28    19    13   ar
    29    21    23    1
    30    21    24    1
@<TRIPOS>MOLECULE
*****
 28 30 0 0 0
SMALL
GASTEIGER

@<TRIPOS>ATOM
      1 N         140.9137  140.5357  169.1895 N.ar    1  UNL1       -0.1495
      2 N         139.6570  139.9096  169.7176 N.ar    1  UNL1       -0.0450
      3 N         138.8345  139.4617  168.5458 N.ar    1  UNL1       -0.1077
      4 C         139.5829  139.8110  167.2936 C.ar    1  UNL1        0.2058
      5 N         140.8679  140.4747  167.6914 N.ar    1  UNL1       -0.1297
      6 C         139.1264  139.5434  165.8900 C.ar    1  UNL1        0.0395
      7 C         138.4649  140.6308  165.0963 C.ar    1  UNL1        0.0063
      8 C         138.0084  140.3632  163.6928 C.ar    1  UNL1        0.0376
      9 C         138.2135  139.0082  163.0829 C.ar    1  UNL1        0.1453
     10 C         138.8750  137.9208  163.8766 C.ar    1  UNL1        0.0376
     11 C         139.3315  138.1884  165.2801 C.ar    1  UNL1        0.0063
     12 O         137.7570  138.7406  161.6793 O.3     1  UNL1       -0.4535
     13 C         138.6151  139.1527  160.5201 C.ar    1  UNL1        0.1454
     14 C         140.0163  138.6306  160.4013 C.ar    1  UNL1        0.0384
     15 C         140.8745  139.0428  159.2420 C.ar    1  UNL1        0.0145
     16 C         140.3314  139.9770  158.2017 C.ar    1  UNL1        0.0579
     17 CL        141.1895  140.3891  157.0425 Cl      1  UNL1       -0.0822
     18 C         138.9302  140.4991  158.3205 C.ar    1  UNL1        0.0145
     19 C         138.0721  140.0869  159.4797 C.ar    1  UNL1        0.0384
     20 C         142.0217  141.1201  170.0147 C.3     1  UNL1        0.1670
     21 N         143.4717  143.1815  170.6455 N.3     1  UNL1       -0.3202
     22 C         142.2107  142.6071  170.0710 C.3     1  UNL1        0.0831
     23 H         143.4307  144.1999  170.6048 H       1  UNL1        0.1189
     24 H         144.2721  142.8516  170.1062 H       1  UNL1        0.1189
     25 C         141.1389  143.5196  169.5529 C.3     1  UNL1        0.0593
     26 C         140.0535  143.9988  170.4707 C.2     1  UNL1        0.0517
     27 O         139.6980  145.4553  170.5156 O.co2   1  UNL1       -0.5491
     28 O         139.3237  143.0214  171.3435 O.co2   1  UNL1       -0.5491
@<TRIPOS>UNITY_ATOM_ATTR
27 1
charge -1
@<TRIPOS>BOND
     1    22    21    1
     2    22    25    1
     3    25    26    1
     4    26    27   ar
     5    26    28   ar
     6    22    20    1
     7    20     1    1
     8     1     2   ar
     9     2     3   ar
    10     3     4   ar
    11     4     6    1
    12     6     7   ar
    13     7     8   ar
    14     8     9   ar
    15     9    12    1
    16    12    13    1
    17    13    14   ar
    18    14    15   ar
    19    15    16   ar
    20    16    17    1
    21    16    18   ar
    22    18    19   ar
    23     9    10   ar
    24    10    11   ar
    25     4     5   ar
    26     5     1   ar
    27    11     6   ar
    28    19    13   ar
    29    21    23    1
    30    21    24    1
@<TRIPOS>MOLECULE
*****
 28 30 0 0 0
SMALL
GASTEIGER

@<TRIPOS>ATOM
      1 N         139.6824  139.5803  167.3723 N.ar    1  UNL1       -0.1495
      2 N         138.3013  139.0141  167.5205 N.ar    1  UNL1       -0.0450
      3 N         137.7043  138.8838  166.1506 N.ar    1  UNL1       -0.1077
      4 C         138.7164  139.3695  165.1558 C.ar    1  UNL1        0.2058
      5 N         139.9389  139.8000  165.9108 N.ar    1  UNL1       -0.1297
      6 C         138.5374  139.4165  163.6672 C.ar    1  UNL1        0.0395
      7 C         137.8388  140.5822  163.0322 C.ar    1  UNL1        0.0063
      8 C         137.6598  140.6291  161.5437 C.ar    1  UNL1        0.0376
      9 C         138.1794  139.5104  160.6902 C.ar    1  UNL1        0.1453
     10 C         138.8780  138.3448  161.3251 C.ar    1  UNL1        0.0376
     11 C         139.0570  138.2978  162.8136 C.ar    1  UNL1        0.0063
     12 O         138.0004  139.5574  159.2016 O.3     1  UNL1       -0.4535
     13 C         138.3247  140.8122  158.4464 C.ar    1  UNL1        0.1454
     14 C         139.6666  141.4617  158.6121 C.ar    1  UNL1        0.0384
     15 C         139.9908  142.7165  157.8569 C.ar    1  UNL1        0.0145
     16 C         138.9732  143.3218  156.9360 C.ar    1  UNL1        0.0579
     17 CL        139.2975  144.5766  156.1809 Cl      1  UNL1       -0.0822
     18 C         137.6313  142.6723  156.7703 C.ar    1  UNL1        0.0145
     19 C         137.3070  141.4175  157.5254 C.ar    1  UNL1        0.0384
     20 C         140.6390  139.8751  168.4894 C.3     1  UNL1        0.1670
     21 N         140.3162  139.4272  171.0281 N.3     1  UNL1       -0.3202
     22 C         140.1184  140.3058  169.8286 C.3     1  UNL1        0.0831
     23 H         139.9024  139.8721  171.8474 H       1  UNL1        0.1189
     24 H         141.3141  139.2861  171.1854 H       1  UNL1        0.1189
     25 C         139.4000  141.6152  169.9683 C.3     1  UNL1        0.0593
     26 C         139.9368  142.6707  170.8889 C.2     1  UNL1        0.0517
     27 O         140.5599  142.2795  172.1960 O.co2   1  UNL1       -0.5491
     28 O         139.8505  144.1174  170.5024 O.co2   1  UNL1       -0.5491
@<TRIPOS>UNITY_ATOM_ATTR
27 1
charge -1
@<TRIPOS>BOND
     1    22    21    1
     2    22    25    1
     3    25    26    1
     4    26    27   ar
     5    26    28   ar
     6    22    20    1
     7    20     1    1
     8     1     2   ar
     9     2     3   ar
    10     3     4   ar
    11     4     6    1
    12     6     7   ar
    13     7     8   ar
    14     8     9   ar
    15     9    12    1
    16    12    13    1
    17    13    14   ar
    18    14    15   ar
    19    15    16   ar
    20    16    17    1
    21    16    18   ar
    22    18    19   ar
    23     9    10   ar
    24    10    11   ar
    25     4     5   ar
    26     5     1   ar
    27    11     6   ar
    28    19    13   ar
    29    21    23    1
    30    21    24    1
@<TRIPOS>MOLECULE
*****
 28 30 0 0 0
SMALL
GASTEIGER

@<TRIPOS>ATOM
      1 N         140.3603  140.1333  169.2577 N.ar    1  UNL1       -0.1495
      2 N         138.8947  139.8140  169.2730 N.ar    1  UNL1       -0.0450
      3 N         138.5132  139.3226  167.9081 N.ar    1  UNL1       -0.1077
      4 C         139.7430  139.3381  167.0493 C.ar    1  UNL1        0.2058
      5 N         140.8845  139.8392  167.8834 N.ar    1  UNL1       -0.1297
      6 C         139.8179  138.9251  165.6092 C.ar    1  UNL1        0.0395
      7 C         140.8715  139.5090  164.7154 C.ar    1  UNL1        0.0063
      8 C         140.9465  139.0959  163.2753 C.ar    1  UNL1        0.0376
      9 C         139.9678  138.0990  162.7291 C.ar    1  UNL1        0.1453
     10 C         138.9143  137.5150  163.6230 C.ar    1  UNL1        0.0376
     11 C         138.8393  137.9281  165.0630 C.ar    1  UNL1        0.0063
     12 O         140.0428  137.6859  161.2890 O.3     1  UNL1       -0.4535
     13 C         139.5644  138.6180  160.2156 C.ar    1  UNL1        0.1454
     14 C         140.2973  138.6965  158.9091 C.ar    1  UNL1        0.0384
     15 C         139.8188  139.6286  157.8357 C.ar    1  UNL1        0.0145
     16 C         138.6075  140.4821  158.0686 C.ar    1  UNL1        0.0579
     17 CL        138.1291  141.4142  156.9952 Cl      1  UNL1       -0.0822
     18 C         137.8747  140.4036  159.3751 C.ar    1  UNL1        0.0145
     19 C         138.3531  139.4715  160.4485 C.ar    1  UNL1        0.0384
     20 C         141.1610  140.6552  170.4138 C.3     1  UNL1        0.1670
     21 N         143.4270  139.5907  171.1081 N.3     1  UNL1       -0.3202
     22 C         142.6598  140.6379  170.3566 C.3     1  UNL1        0.0831
     23 H         144.4265  139.7282  170.9579 H       1  UNL1        0.1189
     24 H         143.1570  138.6658  170.7735 H       1  UNL1        0.1189
     25 C         143.3914  141.6679  169.5478 C.3     1  UNL1        0.0593
     26 C         143.8437  142.9448  170.1920 C.2     1  UNL1        0.0517
     27 O         142.8358  143.8809  170.7902 O.co2   1  UNL1       -0.5491
     28 O         145.3037  143.2855  170.2380 O.co2   1  UNL1       -0.5491
@<TRIPOS>UNITY_ATOM_ATTR
27 1
charge -1
@<TRIPOS>BOND
     1    22    21    1
     2    22    25    1
     3    25    26    1
     4    26    27   ar
     5    26    28   ar
     6    22    20    1
     7    20     1    1
     8     1     2   ar
     9     2     3   ar
    10     3     4   ar
    11     4     6    1
    12     6     7   ar
    13     7     8   ar
    14     8     9   ar
    15     9    12    1
    16    12    13    1
    17    13    14   ar
    18    14    15   ar
    19    15    16   ar
    20    16    17    1
    21    16    18   ar
    22    18    19   ar
    23     9    10   ar
    24    10    11   ar
    25     4     5   ar
    26     5     1   ar
    27    11     6   ar
    28    19    13   ar
    29    21    23    1
    30    21    24    1
@<TRIPOS>MOLECULE
*****
 28 30 0 0 0
SMALL
GASTEIGER

@<TRIPOS>ATOM
      1 N         139.8415  138.7364  157.8211 N.ar    1  UNL1       -0.1495
      2 N         138.6041  139.5603  157.6211 N.ar    1  UNL1       -0.0450
      3 N         138.0320  139.8727  158.9721 N.ar    1  UNL1       -0.1077
      4 C         138.9158  139.2419  160.0070 C.ar    1  UNL1        0.2058
      5 N         140.0341  138.5396  159.2956 N.ar    1  UNL1       -0.1297
      6 C         138.7162  139.3028  161.4924 C.ar    1  UNL1        0.0395
      7 C         138.1964  140.5577  162.1286 C.ar    1  UNL1        0.0063
      8 C         137.9969  140.6185  163.6140 C.ar    1  UNL1        0.0376
      9 C         138.3172  139.4243  164.4632 C.ar    1  UNL1        0.1453
     10 C         138.8371  138.1693  163.8271 C.ar    1  UNL1        0.0376
     11 C         139.0366  138.1086  162.3417 C.ar    1  UNL1        0.0063
     12 O         138.1177  139.4851  165.9487 O.3     1  UNL1       -0.4535
     13 C         139.2959  139.6800  166.8563 C.ar    1  UNL1        0.1454
     14 C         139.0840  139.8822  168.3275 C.ar    1  UNL1        0.0384
     15 C         140.2623  140.0771  169.2351 C.ar    1  UNL1        0.0145
     16 C         141.6523  140.0698  168.6716 C.ar    1  UNL1        0.0579
     17 CL        142.8305  140.2647  169.5793 Cl      1  UNL1       -0.0822
     18 C         141.8642  139.8677  167.2005 C.ar    1  UNL1        0.0145
     19 C         140.6860  139.6728  166.2929 C.ar    1  UNL1        0.0384
     20 C         140.7303  138.2029  156.7369 C.3     1  UNL1        0.1670
     21 N         142.9086  137.9679  158.1330 N.3     1  UNL1       -0.3202
     22 C         141.9689  137.4352  157.0923 C.3     1  UNL1        0.0831
     23 H         143.6908  137.3232  158.2469 H       1  UNL1        0.1189
     24 H         142.4147  138.0633  159.0203 H       1  UNL1        0.1189
     25 C         142.2678  136.1348  156.4071 C.3     1  UNL1        0.0593
     26 C         143.6857  135.7639  156.0876 C.2     1  UNL1        0.0517
     27 O         144.6646  136.8247  155.6795 O.co2   1  UNL1       -0.5491
     28 O         144.1246  134.3324  156.1762 O.co2   1  UNL1       -0.5491
@<TRIPOS>UNITY_ATOM_ATTR
27 1
charge -1
@<TRIPOS>BOND
     1    22    21    1
     2    22    25    1
     3    25    26    1
     4    26    27   ar
     5    26    28   ar
     6    22    20    1
     7    20     1    1
     8     1     2   ar
     9     2     3   ar
    10     3     4   ar
    11     4     6    1
    12     6     7   ar
    13     7     8   ar
    14     8     9   ar
    15     9    12    1
    16    12    13    1
    17    13    14   ar
    18    14    15   ar
    19    15    16   ar
    20    16    17    1
    21    16    18   ar
    22    18    19   ar
    23     9    10   ar
    24    10    11   ar
    25     4     5   ar
    26     5     1   ar
    27    11     6   ar
    28    19    13   ar
    29    21    23    1
    30    21    24    1
@<TRIPOS>MOLECULE
*****
 28 30 0 0 0
SMALL
GASTEIGER

@<TRIPOS>ATOM
      1 N         136.8688  141.4599  156.8799 N.ar    1  UNL1       -0.1495
      2 N         137.7143  142.6121  157.3356 N.ar    1  UNL1       -0.0450
      3 N         138.4587  142.1830  158.5651 N.ar    1  UNL1       -0.1077
      4 C         138.0733  140.7656  158.8693 C.ar    1  UNL1        0.2058
      5 N         137.0907  140.3188  157.8278 N.ar    1  UNL1       -0.1297
      6 C         138.5813  139.9400  160.0141 C.ar    1  UNL1        0.0395
      7 C         137.6753  139.6147  161.1643 C.ar    1  UNL1        0.0063
      8 C         138.1833  138.7891  162.3090 C.ar    1  UNL1        0.0376
      9 C         139.5975  138.2890  162.3034 C.ar    1  UNL1        0.1453
     10 C         140.5036  138.6143  161.1532 C.ar    1  UNL1        0.0376
     11 C         139.9955  139.4399  160.0085 C.ar    1  UNL1        0.0063
     12 O         140.1055  137.4634  163.4482 O.3     1  UNL1       -0.4535
     13 C         140.7544  138.1309  164.6243 C.ar    1  UNL1        0.1454
     14 C         139.9339  138.9733  165.5554 C.ar    1  UNL1        0.0384
     15 C         140.5829  139.6408  166.7316 C.ar    1  UNL1        0.0145
     16 C         142.0524  139.4658  166.9766 C.ar    1  UNL1        0.0579
     17 CL        142.7013  140.1333  168.1528 Cl      1  UNL1       -0.0822
     18 C         142.8729  138.6234  166.0455 C.ar    1  UNL1        0.0145
     19 C         142.2240  137.9559  164.8693 C.ar    1  UNL1        0.0384
     20 C         135.9608  141.4506  155.6860 C.3     1  UNL1        0.1670
     21 N         135.6080  138.9788  154.9680 N.3     1  UNL1       -0.3202
     22 C         135.0474  140.2849  155.4474 C.3     1  UNL1        0.0831
     23 H         134.8514  138.3032  154.8602 H       1  UNL1        0.1189
     24 H         136.2825  138.6282  155.6481 H       1  UNL1        0.1189
     25 C         133.5735  140.4254  155.6883 C.3     1  UNL1        0.0593
     26 C         132.9342  139.7289  156.8528 C.2     1  UNL1        0.0517
     27 O         131.6475  140.2481  157.4229 O.co2   1  UNL1       -0.5491
     28 O         133.5814  138.5134  157.4472 O.co2   1  UNL1       -0.5491
@<TRIPOS>UNITY_ATOM_ATTR
27 1
charge -1
@<TRIPOS>BOND
     1    22    21    1
     2    22    25    1
     3    25    26    1
     4    26    27   ar
     5    26    28   ar
     6    22    20    1
     7    20     1    1
     8     1     2   ar
     9     2     3   ar
    10     3     4   ar
    11     4     6    1
    12     6     7   ar
    13     7     8   ar
    14     8     9   ar
    15     9    12    1
    16    12    13    1
    17    13    14   ar
    18    14    15   ar
    19    15    16   ar
    20    16    17    1
    21    16    18   ar
    22    18    19   ar
    23     9    10   ar
    24    10    11   ar
    25     4     5   ar
    26     5     1   ar
    27    11     6   ar
    28    19    13   ar
    29    21    23    1
    30    21    24    1
@<TRIPOS>MOLECULE
*****
 28 30 0 0 0
SMALL
GASTEIGER

@<TRIPOS>ATOM
      1 N         139.2498  139.0310  158.7359 N.ar    1  UNL1       -0.1495
      2 N         137.9991  139.8591  158.7328 N.ar    1  UNL1       -0.0450
      3 N         137.5806  140.0720  160.1574 N.ar    1  UNL1       -0.1077
      4 C         138.5727  139.3755  161.0410 C.ar    1  UNL1        0.2058
      5 N         139.6043  138.7321  160.1624 N.ar    1  UNL1       -0.1297
      6 C         138.5390  139.3303  162.5400 C.ar    1  UNL1        0.0395
      7 C         138.1293  140.5456  163.3179 C.ar    1  UNL1        0.0063
      8 C         138.0957  140.5004  164.8168 C.ar    1  UNL1        0.0376
      9 C         138.4717  139.2399  165.5378 C.ar    1  UNL1        0.1453
     10 C         138.8814  138.0246  164.7598 C.ar    1  UNL1        0.0376
     11 C         138.9150  138.0698  163.2609 C.ar    1  UNL1        0.0063
     12 O         138.4380  139.1947  167.0368 O.3     1  UNL1       -0.4535
     13 C         139.5532  139.8078  167.8308 C.ar    1  UNL1        0.1454
     14 C         139.3032  140.2837  169.2312 C.ar    1  UNL1        0.0384
     15 C         140.4184  140.8968  170.0252 C.ar    1  UNL1        0.0145
     16 C         141.7835  141.0339  169.4189 C.ar    1  UNL1        0.0579
     17 CL        142.8987  141.6469  170.2130 Cl      1  UNL1       -0.0822
     18 C         142.0335  140.5579  168.0186 C.ar    1  UNL1        0.0145
     19 C         140.9184  139.9449  167.2245 C.ar    1  UNL1        0.0384
     20 C         140.0122  138.5807  157.5251 C.3     1  UNL1        0.1670
     21 N         138.9777  136.6522  156.1250 N.3     1  UNL1       -0.3202
     22 C         139.2747  138.1112  156.3062 C.3     1  UNL1        0.0831
     23 H         138.4744  136.5139  155.2487 H       1  UNL1        0.1189
     24 H         138.4046  136.3228  156.9019 H       1  UNL1        0.1189
     25 C         138.8342  139.1008  155.2685 C.3     1  UNL1        0.0593
     26 C         137.6854  138.7746  154.3609 C.2     1  UNL1        0.0517
     27 O         137.5904  139.4195  153.0099 O.co2   1  UNL1       -0.5491
     28 O         136.6317  137.8036  154.8042 O.co2   1  UNL1       -0.5491
@<TRIPOS>UNITY_ATOM_ATTR
27 1
charge -1
@<TRIPOS>BOND
     1    22    21    1
     2    22    25    1
     3    25    26    1
     4    26    27   ar
     5    26    28   ar
     6    22    20    1
     7    20     1    1
     8     1     2   ar
     9     2     3   ar
    10     3     4   ar
    11     4     6    1
    12     6     7   ar
    13     7     8   ar
    14     8     9   ar
    15     9    12    1
    16    12    13    1
    17    13    14   ar
    18    14    15   ar
    19    15    16   ar
    20    16    17    1
    21    16    18   ar
    22    18    19   ar
    23     9    10   ar
    24    10    11   ar
    25     4     5   ar
    26     5     1   ar
    27    11     6   ar
    28    19    13   ar
    29    21    23    1
    30    21    24    1
@<TRIPOS>MOLECULE
*****
 28 30 0 0 0
SMALL
GASTEIGER

@<TRIPOS>ATOM
      1 N         142.9848  137.5287  157.8383 N.ar    1  UNL1       -0.1495
      2 N         143.4783  138.8678  157.3762 N.ar    1  UNL1       -0.0450
      3 N         143.7006  139.7232  158.5881 N.ar    1  UNL1       -0.1077
      4 C         143.3447  138.9129  159.7992 C.ar    1  UNL1        0.2058
      5 N         142.9022  137.5566  159.3358 N.ar    1  UNL1       -0.1297
      6 C         143.4182  139.3774  161.2236 C.ar    1  UNL1        0.0395
      7 C         143.4399  140.8448  161.5339 C.ar    1  UNL1        0.0063
      8 C         143.5134  141.3092  162.9582 C.ar    1  UNL1        0.0376
      9 C         143.5652  140.3062  164.0724 C.ar    1  UNL1        0.1453
     10 C         143.5435  138.8388  163.7622 C.ar    1  UNL1        0.0376
     11 C         143.4700  138.3744  162.3378 C.ar    1  UNL1        0.0063
     12 O         143.6388  140.7707  165.4968 O.3     1  UNL1       -0.4535
     13 C         142.4574  140.5963  166.4045 C.ar    1  UNL1        0.1454
     14 C         142.5881  140.8876  167.8701 C.ar    1  UNL1        0.0384
     15 C         141.4066  140.7132  168.7777 C.ar    1  UNL1        0.0145
     16 C         140.0945  140.2477  168.2197 C.ar    1  UNL1        0.0579
     17 CL        138.9131  140.0733  169.1274 Cl      1  UNL1       -0.0822
     18 C         139.9637  139.9564  166.7541 C.ar    1  UNL1        0.0145
     19 C         141.1451  140.1307  165.8465 C.ar    1  UNL1        0.0384
     20 C         142.6353  136.3659  156.9576 C.3     1  UNL1        0.1670
     21 N         144.7330  136.6852  155.4584 N.3     1  UNL1       -0.3202
     22 C         143.6609  135.7996  156.0209 C.3     1  UNL1        0.0831
     23 H         145.3384  136.1390  154.8456 H       1  UNL1        0.1189
     24 H         145.2854  137.0768  156.2212 H       1  UNL1        0.1189
     25 C         143.6144  134.3478  155.6466 C.3     1  UNL1        0.0593
     26 C         142.4276  133.5129  156.0267 C.2     1  UNL1        0.0517
     27 O         142.5556  132.4716  157.0988 O.co2   1  UNL1       -0.5491
     28 O         141.1129  133.7193  155.3348 O.co2   1  UNL1       -0.5491
@<TRIPOS>UNITY_ATOM_ATTR
27 1
charge -1
@<TRIPOS>BOND
     1    22    21    1
     2    22    25    1
     3    25    26    1
     4    26    27   ar
     5    26    28   ar
     6    22    20    1
     7    20     1    1
     8     1     2   ar
     9     2     3   ar
    10     3     4   ar
    11     4     6    1
    12     6     7   ar
    13     7     8   ar
    14     8     9   ar
    15     9    12    1
    16    12    13    1
    17    13    14   ar
    18    14    15   ar
    19    15    16   ar
    20    16    17    1
    21    16    18   ar
    22    18    19   ar
    23     9    10   ar
    24    10    11   ar
    25     4     5   ar
    26     5     1   ar
    27    11     6   ar
    28    19    13   ar
    29    21    23    1
    30    21    24    1
