@<TRIPOS>MOLECULE
*****
 40 43 0 0 0
SMALL
GASTEIGER

@<TRIPOS>ATOM
      1 C         140.7565  141.6178  162.0556 C.3     1  UNL1        0.1043
      2 C         141.2125  143.8535  160.8130 C.ar    1  UNL1        0.0508
      3 C         140.9088  145.3070  160.6007 C.ar    1  UNL1        0.0145
      4 C         139.8457  145.9784  161.4186 C.ar    1  UNL1        0.0013
      5 C         139.0861  145.1962  162.4487 C.ar    1  UNL1       -0.0002
      6 C         139.3897  143.7427  162.6611 C.ar    1  UNL1       -0.0014
      7 C         140.4529  143.0714  161.8432 C.ar    1  UNL1        0.0100
      8 C         143.6942  143.1595  160.4822 C.2     1  UNL1        0.4054
      9 O         144.0496  143.8083  161.7872 O.2     1  UNL1       -0.2261
     10 N         142.2757  143.1822  159.9952 N.am    1  UNL1       -0.2502
     11 H         142.0424  142.7564  159.1387 H       1  UNL1        0.1582
     12 O         144.7574  142.4882  159.6644 O.3     1  UNL1       -0.4345
     13 C         144.7636  141.2479  157.3814 C.3     1  UNL1        0.0513
     14 C         144.6857  142.5237  158.1664 C.3     1  UNL1        0.2102
     15 C         141.1119  141.1181  163.4245 C.ar    1  UNL1       -0.0036
     16 C         142.2071  141.7829  164.2047 C.ar    1  UNL1       -0.0025
     17 C         142.5624  141.2831  165.5737 C.ar    1  UNL1        0.0042
     18 C         141.8226  140.1186  166.1624 C.ar    1  UNL1        0.0536
     19 C         140.7274  139.4538  165.3822 C.ar    1  UNL1        0.0042
     20 C         140.3721  139.9536  164.0132 C.ar    1  UNL1       -0.0025
     21 C         142.1779  139.6189  167.5313 C.2     1  UNL1        0.2490
     22 O         143.3009  138.6396  167.7041 O.2     1  UNL1       -0.2699
     23 N         141.4102  140.0984  168.7275 N.am    1  UNL1       -0.2761
     24 C         141.7655  139.5987  170.0964 C.3     1  UNL1        0.0938
     25 C         143.0106  140.0890  170.7740 C.3     1  UNL1        0.0233
     26 C         140.2872  141.0777  168.5546 C.3     1  UNL1        0.0938
     27 C         140.5382  142.5457  168.7326 C.3     1  UNL1        0.0233
     28 N         140.7048  140.6641  160.8990 N.3     1  UNL1       -0.2643
     29 C         139.5195  140.6637  159.9796 C.3     1  UNL1        0.0901
     30 C         139.4678  139.7099  158.8231 C.3     1  UNL1        0.0900
     31 N         140.6013  138.7565  158.5858 N.3     1  UNL1       -0.2652
     32 C         141.7865  138.7569  159.5052 C.3     1  UNL1        0.0900
     33 C         141.8383  139.7107  160.6618 C.3     1  UNL1        0.0901
     34 C         140.5496  137.8028  157.4293 C.3     1  UNL1        0.1187
     35 C         141.8173  137.3830  156.7460 C.ar    1  UNL1        0.0752
     36 C         142.6162  138.3848  155.9662 C.ar    1  UNL1        0.0161
     37 C         143.8838  137.9650  155.2830 C.ar    1  UNL1        0.0028
     38 C         144.3525  136.5435  155.3796 C.ar    1  UNL1        0.0207
     39 C         143.5536  135.5416  156.1594 C.ar    1  UNL1        0.0985
     40 N         142.2860  135.9614  156.8426 N.ar    1  UNL1       -0.2468
@<TRIPOS>BOND
     1    13    14    1
     2    14    12    1
     3    12     8    1
     4     8     9    2
     5     8    10   am
     6    10     2    1
     7     2     3   ar
     8     3     4   ar
     9     4     5   ar
    10     5     6   ar
    11     6     7   ar
    12     7     1    1
    13     1    15    1
    14    15    16   ar
    15    16    17   ar
    16    17    18   ar
    17    18    21    1
    18    21    22    2
    19    21    23   am
    20    23    24    1
    21    24    25    1
    22    23    26    1
    23    26    27    1
    24    18    19   ar
    25    19    20   ar
    26     1    28    1
    27    28    29    1
    28    29    30    1
    29    30    31    1
    30    31    34    1
    31    34    35    1
    32    35    36   ar
    33    36    37   ar
    34    37    38   ar
    35    38    39   ar
    36    39    40   ar
    37    31    32    1
    38    32    33    1
    39     7     2   ar
    40    20    15   ar
    41    33    28    1
    42    40    35   ar
    43    10    11    1
@<TRIPOS>MOLECULE
*****
 40 43 0 0 0
SMALL
GASTEIGER

@<TRIPOS>ATOM
      1 C         140.6842  140.6395  158.7757 C.3     1  UNL1        0.1043
      2 C         142.1416  142.6990  158.1555 C.ar    1  UNL1        0.0508
      3 C         143.4418  143.2734  157.6763 C.ar    1  UNL1        0.0145
      4 C         144.5847  142.3627  157.3381 C.ar    1  UNL1        0.0013
      5 C         144.4275  140.8777  157.4792 C.ar    1  UNL1       -0.0002
      6 C         143.1274  140.3033  157.9583 C.ar    1  UNL1       -0.0014
      7 C         141.9844  141.2140  158.2965 C.ar    1  UNL1        0.0100
      8 C         141.0665  144.4763  159.7160 C.2     1  UNL1        0.4054
      9 O         142.2774  144.4323  160.6003 O.2     1  UNL1       -0.2261
     10 N         140.9987  143.6096  158.4936 N.am    1  UNL1       -0.2502
     11 H         140.2039  143.6385  157.9132 H       1  UNL1        0.1582
     12 O         139.9235  145.3869  160.0542 O.3     1  UNL1       -0.4345
     13 C         139.3789  145.1915  162.5870 C.3     1  UNL1        0.0513
     14 C         139.8381  146.0093  161.4164 C.3     1  UNL1        0.2102
     15 C         140.5283  140.2309  160.2105 C.ar    1  UNL1       -0.0036
     16 C         141.1476  141.0585  161.2975 C.ar    1  UNL1       -0.0025
     17 C         140.9917  140.6499  162.7324 C.ar    1  UNL1        0.0042
     18 C         140.2165  139.4136  163.0801 C.ar    1  UNL1        0.0536
     19 C         139.5972  138.5861  161.9931 C.ar    1  UNL1        0.0042
     20 C         139.7531  138.9948  160.5583 C.ar    1  UNL1       -0.0025
     21 C         140.0606  139.0050  164.5150 C.2     1  UNL1        0.2490
     22 O         141.0054  138.0081  165.1178 O.2     1  UNL1       -0.2699
     23 N         138.9598  139.5934  165.3470 N.am    1  UNL1       -0.2761
     24 C         138.8039  139.1848  166.7818 C.3     1  UNL1        0.0938
     25 C         139.4697  139.9807  167.8649 C.3     1  UNL1        0.0233
     26 C         138.0150  140.5903  164.7442 C.3     1  UNL1        0.0938
     27 C         138.3247  142.0562  164.8169 C.3     1  UNL1        0.0233
     28 N         139.5400  140.4737  157.8200 N.3     1  UNL1       -0.2643
     29 C         138.2553  141.2123  158.0528 C.3     1  UNL1        0.0901
     30 C         137.1111  141.0465  157.0972 C.3     1  UNL1        0.0900
     31 N         137.2515  140.1421  155.9088 N.3     1  UNL1       -0.2652
     32 C         138.5361  139.4036  155.6759 C.3     1  UNL1        0.0900
     33 C         139.6804  139.5694  156.6316 C.3     1  UNL1        0.0901
     34 C         136.1073  139.9763  154.9532 C.3     1  UNL1        0.1187
     35 C         134.6953  140.0365  155.4560 C.ar    1  UNL1        0.0752
     36 C         133.8196  141.1996  155.0952 C.ar    1  UNL1        0.0161
     37 C         132.4077  141.2598  155.5981 C.ar    1  UNL1        0.0028
     38 C         131.8716  140.1569  156.4617 C.ar    1  UNL1        0.0207
     39 C         132.7473  138.9937  156.8226 C.ar    1  UNL1        0.0985
     40 N         134.1592  138.9335  156.3197 N.ar    1  UNL1       -0.2468
@<TRIPOS>BOND
     1    13    14    1
     2    14    12    1
     3    12     8    1
     4     8     9    2
     5     8    10   am
     6    10     2    1
     7     2     3   ar
     8     3     4   ar
     9     4     5   ar
    10     5     6   ar
    11     6     7   ar
    12     7     1    1
    13     1    15    1
    14    15    16   ar
    15    16    17   ar
    16    17    18   ar
    17    18    21    1
    18    21    22    2
    19    21    23   am
    20    23    24    1
    21    24    25    1
    22    23    26    1
    23    26    27    1
    24    18    19   ar
    25    19    20   ar
    26     1    28    1
    27    28    29    1
    28    29    30    1
    29    30    31    1
    30    31    34    1
    31    34    35    1
    32    35    36   ar
    33    36    37   ar
    34    37    38   ar
    35    38    39   ar
    36    39    40   ar
    37    31    32    1
    38    32    33    1
    39     7     2   ar
    40    20    15   ar
    41    33    28    1
    42    40    35   ar
    43    10    11    1
@<TRIPOS>MOLECULE
*****
 40 43 0 0 0
SMALL
GASTEIGER

@<TRIPOS>ATOM
      1 C         141.2650  140.6206  162.5137 C.3     1  UNL1        0.1043
      2 C         138.8676  140.6764  161.5141 C.ar    1  UNL1        0.0508
      3 C         137.5911  139.9728  161.1601 C.ar    1  UNL1        0.0145
      4 C         137.4353  138.5097  161.4518 C.ar    1  UNL1        0.0013
      5 C         138.5562  137.7502  162.0975 C.ar    1  UNL1       -0.0002
      6 C         139.8327  138.4538  162.4514 C.ar    1  UNL1       -0.0014
      7 C         139.9884  139.9169  162.1597 C.ar    1  UNL1        0.0100
      8 C         138.3372  143.1541  162.0883 C.2     1  UNL1        0.4054
      9 O         137.4954  142.7056  163.2460 O.2     1  UNL1       -0.2261
     10 N         139.0233  142.1395  161.2224 N.am    1  UNL1       -0.2502
     11 H         139.5758  142.4339  160.4625 H       1  UNL1        0.1582
     12 O         138.4930  144.6172  161.7966 O.3     1  UNL1       -0.4345
     13 C         139.9035  145.2075  163.8971 C.3     1  UNL1        0.0513
     14 C         139.6016  145.3964  162.4400 C.3     1  UNL1        0.2102
     15 C         141.6050  140.8792  163.9516 C.ar    1  UNL1       -0.0036
     16 C         142.6870  140.0848  164.6211 C.ar    1  UNL1       -0.0025
     17 C         143.0270  140.3435  166.0589 C.ar    1  UNL1        0.0042
     18 C         142.2849  141.3966  166.8273 C.ar    1  UNL1        0.0536
     19 C         141.2030  142.1910  166.1578 C.ar    1  UNL1        0.0042
     20 C         140.8630  141.9323  164.7199 C.ar    1  UNL1       -0.0025
     21 C         142.6249  141.6553  168.2652 C.2     1  UNL1        0.2490
     22 O         143.6945  142.6465  168.6164 O.2     1  UNL1       -0.2699
     23 N         141.8952  140.9227  169.3519 N.am    1  UNL1       -0.2761
     24 C         142.2351  141.1814  170.7898 C.3     1  UNL1        0.0938
     25 C         141.7830  142.4496  171.4510 C.3     1  UNL1        0.0233
     26 C         140.8255  139.9315  169.0008 C.3     1  UNL1        0.0938
     27 C         139.3815  140.2833  169.2030 C.3     1  UNL1        0.0233
     28 N         142.2016  141.0654  161.4298 N.3     1  UNL1       -0.2643
     29 C         142.4001  140.2113  160.2127 C.3     1  UNL1        0.0901
     30 C         143.3366  140.6562  159.1288 C.3     1  UNL1        0.0900
     31 N         144.0748  141.9552  159.2620 N.3     1  UNL1       -0.2652
     32 C         143.8764  142.8093  160.4790 C.3     1  UNL1        0.0900
     33 C         142.9398  142.3644  161.5629 C.3     1  UNL1        0.0901
     34 C         145.0114  142.4001  158.1781 C.3     1  UNL1        0.1187
     35 C         144.9083  141.8030  156.8059 C.ar    1  UNL1        0.0752
     36 C         144.2196  142.5592  155.7087 C.ar    1  UNL1        0.0161
     37 C         144.1165  141.9621  154.3365 C.ar    1  UNL1        0.0028
     38 C         144.7020  140.6088  154.0616 C.ar    1  UNL1        0.0207
     39 C         145.3906  139.8525  155.1588 C.ar    1  UNL1        0.0985
     40 N         145.4938  140.4496  156.5309 N.ar    1  UNL1       -0.2468
@<TRIPOS>BOND
     1    13    14    1
     2    14    12    1
     3    12     8    1
     4     8     9    2
     5     8    10   am
     6    10     2    1
     7     2     3   ar
     8     3     4   ar
     9     4     5   ar
    10     5     6   ar
    11     6     7   ar
    12     7     1    1
    13     1    15    1
    14    15    16   ar
    15    16    17   ar
    16    17    18   ar
    17    18    21    1
    18    21    22    2
    19    21    23   am
    20    23    24    1
    21    24    25    1
    22    23    26    1
    23    26    27    1
    24    18    19   ar
    25    19    20   ar
    26     1    28    1
    27    28    29    1
    28    29    30    1
    29    30    31    1
    30    31    34    1
    31    34    35    1
    32    35    36   ar
    33    36    37   ar
    34    37    38   ar
    35    38    39   ar
    36    39    40   ar
    37    31    32    1
    38    32    33    1
    39     7     2   ar
    40    20    15   ar
    41    33    28    1
    42    40    35   ar
    43    10    11    1
@<TRIPOS>MOLECULE
*****
 40 43 0 0 0
SMALL
GASTEIGER

@<TRIPOS>ATOM
      1 C         141.9615  138.8946  156.9601 C.3     1  UNL1        0.1043
      2 C         144.0012  140.4182  157.4780 C.ar    1  UNL1        0.0508
      3 C         144.9247  141.5317  157.0815 C.ar    1  UNL1        0.0145
      4 C         144.7323  142.2349  155.7706 C.ar    1  UNL1        0.0013
      5 C         143.6162  141.8247  154.8562 C.ar    1  UNL1       -0.0002
      6 C         142.6926  140.7113  155.2527 C.ar    1  UNL1       -0.0014
      7 C         142.8851  140.0081  156.5636 C.ar    1  UNL1        0.0100
      8 C         143.8828  140.4245  160.0733 C.2     1  UNL1        0.4054
      9 O         143.3795  141.8373  160.0470 O.2     1  UNL1       -0.2261
     10 N         144.1937  139.7150  158.7888 N.am    1  UNL1       -0.2502
     11 H         144.5240  138.7877  158.8062 H       1  UNL1        0.1582
     12 O         144.0753  139.7212  161.3842 O.3     1  UNL1       -0.4345
     13 C         144.9022  139.8532  163.8437 C.3     1  UNL1        0.0513
     14 C         144.3130  140.5161  162.6339 C.3     1  UNL1        0.2102
     15 C         142.1494  137.5229  156.3829 C.ar    1  UNL1       -0.0036
     16 C         140.9553  136.6694  156.0734 C.ar    1  UNL1       -0.0025
     17 C         141.1432  135.2977  155.4963 C.ar    1  UNL1        0.0042
     18 C         142.5252  134.7794  155.2287 C.ar    1  UNL1        0.0536
     19 C         143.7192  135.6329  155.5382 C.ar    1  UNL1        0.0042
     20 C         143.5313  137.0046  156.1153 C.ar    1  UNL1       -0.0025
     21 C         142.7131  133.4077  154.6515 C.2     1  UNL1        0.2490
     22 O         142.5692  133.1893  153.1745 O.2     1  UNL1       -0.2699
     23 N         143.0449  132.2544  155.5515 N.am    1  UNL1       -0.2761
     24 C         143.2328  130.8827  154.9743 C.3     1  UNL1        0.0938
     25 C         144.6147  130.3288  154.7914 C.3     1  UNL1        0.0233
     26 C         143.1888  132.4728  157.0284 C.3     1  UNL1        0.0938
     27 C         144.5464  132.7013  157.6240 C.3     1  UNL1        0.0233
     28 N         140.8500  139.1529  157.9336 N.3     1  UNL1       -0.2643
     29 C         139.7037  140.0391  157.5454 C.3     1  UNL1        0.0901
     30 C         138.5922  140.2974  158.5190 C.3     1  UNL1        0.0900
     31 N         138.6269  139.6694  159.8808 N.3     1  UNL1       -0.2652
     32 C         139.7731  138.7832  160.2690 C.3     1  UNL1        0.0900
     33 C         140.8847  138.5249  159.2954 C.3     1  UNL1        0.0901
     34 C         137.5155  139.9277  160.8543 C.3     1  UNL1        0.1187
     35 C         137.6941  140.9422  161.9447 C.ar    1  UNL1        0.0752
     36 C         137.8370  140.4948  163.3693 C.ar    1  UNL1        0.0161
     37 C         138.0156  141.5092  164.4597 C.ar    1  UNL1        0.0028
     38 C         138.0514  142.9711  164.1255 C.ar    1  UNL1        0.0207
     39 C         137.9085  143.4185  162.7009 C.ar    1  UNL1        0.0985
     40 N         137.7299  142.4040  161.6105 N.ar    1  UNL1       -0.2468
@<TRIPOS>BOND
     1    13    14    1
     2    14    12    1
     3    12     8    1
     4     8     9    2
     5     8    10   am
     6    10     2    1
     7     2     3   ar
     8     3     4   ar
     9     4     5   ar
    10     5     6   ar
    11     6     7   ar
    12     7     1    1
    13     1    15    1
    14    15    16   ar
    15    16    17   ar
    16    17    18   ar
    17    18    21    1
    18    21    22    2
    19    21    23   am
    20    23    24    1
    21    24    25    1
    22    23    26    1
    23    26    27    1
    24    18    19   ar
    25    19    20   ar
    26     1    28    1
    27    28    29    1
    28    29    30    1
    29    30    31    1
    30    31    34    1
    31    34    35    1
    32    35    36   ar
    33    36    37   ar
    34    37    38   ar
    35    38    39   ar
    36    39    40   ar
    37    31    32    1
    38    32    33    1
    39     7     2   ar
    40    20    15   ar
    41    33    28    1
    42    40    35   ar
    43    10    11    1
@<TRIPOS>MOLECULE
*****
 40 43 0 0 0
SMALL
GASTEIGER

@<TRIPOS>ATOM
      1 C         139.6218  140.5201  158.4315 C.3     1  UNL1        0.1043
      2 C         139.5402  142.8872  157.3635 C.ar    1  UNL1        0.0508
      3 C         138.8436  143.9024  156.5068 C.ar    1  UNL1        0.0145
      4 C         137.5321  143.5659  155.8612 C.ar    1  UNL1        0.0013
      5 C         136.9172  142.2141  156.0724 C.ar    1  UNL1       -0.0002
      6 C         137.6138  141.1989  156.9291 C.ar    1  UNL1       -0.0014
      7 C         138.9252  141.5354  157.5747 C.ar    1  UNL1        0.0100
      8 C         140.8810  144.0440  159.2645 C.2     1  UNL1        0.4054
      9 O         139.5988  144.5278  159.8745 O.2     1  UNL1       -0.2261
     10 N         140.8517  143.2237  158.0091 N.am    1  UNL1       -0.2502
     11 H         141.6932  142.9061  157.6088 H       1  UNL1        0.1582
     12 O         142.1925  144.3805  159.9101 O.3     1  UNL1       -0.4345
     13 C         142.0063  144.4291  162.5011 C.3     1  UNL1        0.0513
     14 C         142.5404  143.7997  161.2486 C.3     1  UNL1        0.2102
     15 C         139.3549  140.4739  159.9068 C.ar    1  UNL1       -0.0036
     16 C         137.9809  140.1440  160.4104 C.ar    1  UNL1       -0.0025
     17 C         137.7139  140.0978  161.8857 C.ar    1  UNL1        0.0042
     18 C         138.8209  140.3814  162.8575 C.ar    1  UNL1        0.0536
     19 C         140.1948  140.7113  162.3539 C.ar    1  UNL1        0.0042
     20 C         140.4617  140.7575  160.8785 C.ar    1  UNL1       -0.0025
     21 C         138.5539  140.3352  164.3328 C.2     1  UNL1        0.2490
     22 O         138.0999  141.5708  165.0519 O.2     1  UNL1       -0.2699
     23 N         138.7410  139.0533  165.0890 N.am    1  UNL1       -0.2761
     24 C         138.4740  139.0071  166.5644 C.3     1  UNL1        0.0938
     25 C         137.3549  138.1628  167.0979 C.3     1  UNL1        0.0233
     26 C         139.1950  137.8177  164.3699 C.3     1  UNL1        0.0938
     27 C         140.6143  137.3511  164.5035 C.3     1  UNL1        0.0233
     28 N         140.5853  139.5511  157.8129 N.3     1  UNL1       -0.2643
     29 C         142.0371  139.9095  157.6941 C.3     1  UNL1        0.0901
     30 C         143.0006  138.9405  157.0755 C.3     1  UNL1        0.0900
     31 N         142.5124  137.6131  156.5758 N.3     1  UNL1       -0.2652
     32 C         141.0607  137.2547  156.6946 C.3     1  UNL1        0.0900
     33 C         140.0971  138.2237  157.3132 C.3     1  UNL1        0.0901
     34 C         143.4759  136.6441  155.9573 C.3     1  UNL1        0.1187
     35 C         143.1878  135.1724  155.9951 C.ar    1  UNL1        0.0752
     36 C         142.4640  134.5203  154.8546 C.ar    1  UNL1        0.0161
     37 C         142.1759  133.0488  154.8924 C.ar    1  UNL1        0.0028
     38 C         142.6116  132.2293  156.0708 C.ar    1  UNL1        0.0207
     39 C         143.3354  132.8814  157.2113 C.ar    1  UNL1        0.0985
     40 N         143.6235  134.3530  157.1735 N.ar    1  UNL1       -0.2468
@<TRIPOS>BOND
     1    13    14    1
     2    14    12    1
     3    12     8    1
     4     8     9    2
     5     8    10   am
     6    10     2    1
     7     2     3   ar
     8     3     4   ar
     9     4     5   ar
    10     5     6   ar
    11     6     7   ar
    12     7     1    1
    13     1    15    1
    14    15    16   ar
    15    16    17   ar
    16    17    18   ar
    17    18    21    1
    18    21    22    2
    19    21    23   am
    20    23    24    1
    21    24    25    1
    22    23    26    1
    23    26    27    1
    24    18    19   ar
    25    19    20   ar
    26     1    28    1
    27    28    29    1
    28    29    30    1
    29    30    31    1
    30    31    34    1
    31    34    35    1
    32    35    36   ar
    33    36    37   ar
    34    37    38   ar
    35    38    39   ar
    36    39    40   ar
    37    31    32    1
    38    32    33    1
    39     7     2   ar
    40    20    15   ar
    41    33    28    1
    42    40    35   ar
    43    10    11    1
@<TRIPOS>MOLECULE
*****
 40 43 0 0 0
SMALL
GASTEIGER

@<TRIPOS>ATOM
      1 C         141.6092  141.9100  162.1488 C.3     1  UNL1        0.1043
      2 C         139.3780  143.2004  162.4755 C.ar    1  UNL1        0.0508
      3 C         138.6054  144.4859  162.4518 C.ar    1  UNL1        0.0145
      4 C         139.2912  145.7664  162.0779 C.ar    1  UNL1        0.0013
      5 C         140.7497  145.7615  161.7276 C.ar    1  UNL1       -0.0002
      6 C         141.5223  144.4761  161.7512 C.ar    1  UNL1       -0.0014
      7 C         140.8365  143.1955  162.1252 C.ar    1  UNL1        0.0100
      8 C         138.5508  141.5387  164.2932 C.2     1  UNL1        0.4054
      9 O         139.0953  142.4380  165.3632 O.2     1  UNL1       -0.2261
     10 N         138.6921  141.9199  162.8494 N.am    1  UNL1       -0.2502
     11 H         138.3348  141.3296  162.1472 H       1  UNL1        0.1582
     12 O         137.8649  140.2581  164.6671 O.3     1  UNL1       -0.4345
     13 C         138.4749  138.0227  165.8422 C.3     1  UNL1        0.0513
     14 C         138.2906  139.5104  165.8959 C.3     1  UNL1        0.2102
     15 C         142.0863  141.2981  160.8651 C.ar    1  UNL1       -0.0036
     16 C         143.4008  140.5767  160.8211 C.ar    1  UNL1       -0.0025
     17 C         143.8779  139.9648  159.5374 C.ar    1  UNL1        0.0042
     18 C         143.0406  140.0743  158.2976 C.ar    1  UNL1        0.0536
     19 C         141.7263  140.7957  158.3416 C.ar    1  UNL1        0.0042
     20 C         141.2491  141.4076  159.6253 C.ar    1  UNL1       -0.0025
     21 C         143.5178  139.4624  157.0139 C.2     1  UNL1        0.2490
     22 O         142.8429  138.2381  156.4703 O.2     1  UNL1       -0.2699
     23 N         144.6699  140.0749  156.2739 N.am    1  UNL1       -0.2761
     24 C         145.1471  139.4630  154.9902 C.3     1  UNL1        0.0938
     25 C         144.4741  139.8139  153.6964 C.3     1  UNL1        0.0233
     26 C         145.3448  141.2991  156.8175 C.3     1  UNL1        0.0938
     27 C         146.5593  141.8525  156.1329 C.3     1  UNL1        0.0233
     28 N         141.9047  141.2365  163.4560 N.3     1  UNL1       -0.2643
     29 C         141.6047  139.7774  163.6327 C.3     1  UNL1        0.0901
     30 C         141.9002  139.1038  164.9399 C.3     1  UNL1        0.0900
     31 N         142.4957  139.8893  166.0706 N.3     1  UNL1       -0.2652
     32 C         142.7957  141.3484  165.8940 C.3     1  UNL1        0.0900
     33 C         142.5002  142.0220  164.5867 C.3     1  UNL1        0.0901
     34 C         142.7912  139.2158  167.3779 C.3     1  UNL1        0.1187
     35 C         142.1672  139.7266  168.6427 C.ar    1  UNL1        0.0752
     36 C         140.6780  139.8802  168.7353 C.ar    1  UNL1        0.0161
     37 C         140.0539  140.3910  170.0001 C.ar    1  UNL1        0.0028
     38 C         140.9191  140.7481  171.1722 C.ar    1  UNL1        0.0207
     39 C         142.4083  140.5945  171.0795 C.ar    1  UNL1        0.0985
     40 N         143.0324  140.0837  169.8148 N.ar    1  UNL1       -0.2468
@<TRIPOS>BOND
     1    13    14    1
     2    14    12    1
     3    12     8    1
     4     8     9    2
     5     8    10   am
     6    10     2    1
     7     2     3   ar
     8     3     4   ar
     9     4     5   ar
    10     5     6   ar
    11     6     7   ar
    12     7     1    1
    13     1    15    1
    14    15    16   ar
    15    16    17   ar
    16    17    18   ar
    17    18    21    1
    18    21    22    2
    19    21    23   am
    20    23    24    1
    21    24    25    1
    22    23    26    1
    23    26    27    1
    24    18    19   ar
    25    19    20   ar
    26     1    28    1
    27    28    29    1
    28    29    30    1
    29    30    31    1
    30    31    34    1
    31    34    35    1
    32    35    36   ar
    33    36    37   ar
    34    37    38   ar
    35    38    39   ar
    36    39    40   ar
    37    31    32    1
    38    32    33    1
    39     7     2   ar
    40    20    15   ar
    41    33    28    1
    42    40    35   ar
    43    10    11    1
@<TRIPOS>MOLECULE
*****
 40 43 0 0 0
SMALL
GASTEIGER

@<TRIPOS>ATOM
      1 C         142.7614  137.9441  157.3640 C.3     1  UNL1        0.1043
      2 C         141.5518  136.7771  155.3828 C.ar    1  UNL1        0.0508
      3 C         141.3163  135.5581  154.5412 C.ar    1  UNL1        0.0145
      4 C         142.0549  134.2869  154.8390 C.ar    1  UNL1        0.0013
      5 C         143.0289  134.2348  155.9785 C.ar    1  UNL1       -0.0002
      6 C         143.2644  135.4539  156.8201 C.ar    1  UNL1       -0.0014
      7 C         142.5259  136.7250  156.5223 C.ar    1  UNL1        0.0100
      8 C         139.3449  138.1480  155.3746 C.2     1  UNL1        0.4054
      9 O         138.6151  136.9766  155.9621 O.2     1  UNL1       -0.2261
     10 N         140.8133  138.0483  155.0850 N.am    1  UNL1       -0.2502
     11 H         141.2923  138.8171  154.6993 H       1  UNL1        0.1582
     12 O         138.6064  139.4192  155.0768 O.3     1  UNL1       -0.4345
     13 C         137.9786  140.6701  157.2656 C.3     1  UNL1        0.0513
     14 C         138.7561  140.6039  155.9846 C.3     1  UNL1        0.2102
     15 C         142.0913  138.0742  158.6996 C.ar    1  UNL1       -0.0036
     16 C         142.8220  137.6752  159.9474 C.ar    1  UNL1       -0.0025
     17 C         142.1518  137.8053  161.2831 C.ar    1  UNL1        0.0042
     18 C         140.7510  138.3344  161.3709 C.ar    1  UNL1        0.0536
     19 C         140.0203  138.7335  160.1232 C.ar    1  UNL1        0.0042
     20 C         140.6905  138.6034  158.7876 C.ar    1  UNL1       -0.0025
     21 C         140.0808  138.4646  162.7066 C.2     1  UNL1        0.2490
     22 O         139.1873  137.3687  163.2073 O.2     1  UNL1       -0.2699
     23 N         140.3042  139.6906  163.5415 N.am    1  UNL1       -0.2761
     24 C         139.6340  139.8207  164.8772 C.3     1  UNL1        0.0938
     25 C         138.2201  140.3141  164.9620 C.3     1  UNL1        0.0233
     26 C         141.1976  140.7864  163.0408 C.3     1  UNL1        0.0938
     27 C         140.6092  141.9645  162.3226 C.3     1  UNL1        0.0233
     28 N         143.6671  139.0330  156.8700 N.3     1  UNL1       -0.2643
     29 C         144.4397  138.8465  155.5978 C.3     1  UNL1        0.0901
     30 C         145.3453  139.9354  155.1039 C.3     1  UNL1        0.0900
     31 N         145.4784  141.2109  155.8821 N.3     1  UNL1       -0.2652
     32 C         144.7059  141.3974  157.1542 C.3     1  UNL1        0.0900
     33 C         143.8002  140.3084  157.6482 C.3     1  UNL1        0.0901
     34 C         146.3841  142.2998  155.3881 C.3     1  UNL1        0.1187
     35 C         147.6948  141.9519  154.7469 C.ar    1  UNL1        0.0752
     36 C         148.9231  141.7880  155.5921 C.ar    1  UNL1        0.0161
     37 C         150.2338  141.4402  154.9510 C.ar    1  UNL1        0.0028
     38 C         150.3162  141.2563  153.4646 C.ar    1  UNL1        0.0207
     39 C         149.0879  141.4202  152.6194 C.ar    1  UNL1        0.0985
     40 N         147.7772  141.7681  153.2605 N.ar    1  UNL1       -0.2468
@<TRIPOS>BOND
     1    13    14    1
     2    14    12    1
     3    12     8    1
     4     8     9    2
     5     8    10   am
     6    10     2    1
     7     2     3   ar
     8     3     4   ar
     9     4     5   ar
    10     5     6   ar
    11     6     7   ar
    12     7     1    1
    13     1    15    1
    14    15    16   ar
    15    16    17   ar
    16    17    18   ar
    17    18    21    1
    18    21    22    2
    19    21    23   am
    20    23    24    1
    21    24    25    1
    22    23    26    1
    23    26    27    1
    24    18    19   ar
    25    19    20   ar
    26     1    28    1
    27    28    29    1
    28    29    30    1
    29    30    31    1
    30    31    34    1
    31    34    35    1
    32    35    36   ar
    33    36    37   ar
    34    37    38   ar
    35    38    39   ar
    36    39    40   ar
    37    31    32    1
    38    32    33    1
    39     7     2   ar
    40    20    15   ar
    41    33    28    1
    42    40    35   ar
    43    10    11    1
@<TRIPOS>MOLECULE
*****
 40 43 0 0 0
SMALL
GASTEIGER

@<TRIPOS>ATOM
      1 C         142.0451  141.1109  161.3977 C.3     1  UNL1        0.1043
      2 C         139.9688  142.5928  160.9049 C.ar    1  UNL1        0.0508
      3 C         139.3435  143.9497  160.7712 C.ar    1  UNL1        0.0145
      4 C         140.1692  145.1815  160.9967 C.ar    1  UNL1        0.0013
      5 C         141.6202  145.0565  161.3557 C.ar    1  UNL1       -0.0002
      6 C         142.2455  143.6996  161.4894 C.ar    1  UNL1       -0.0014
      7 C         141.4198  142.4678  161.2640 C.ar    1  UNL1        0.0100
      8 C         138.3589  140.7662  161.8114 C.2     1  UNL1        0.4054
      9 O         138.4004  141.4033  163.1688 O.2     1  UNL1       -0.2261
     10 N         139.1431  141.3610  160.6795 N.am    1  UNL1       -0.2502
     11 H         139.1158  140.9429  159.7886 H       1  UNL1        0.1582
     12 O         137.5332  139.5344  161.5860 O.3     1  UNL1       -0.4345
     13 C         138.6066  137.6695  163.0419 C.3     1  UNL1        0.0513
     14 C         138.1627  138.1779  161.7023 C.3     1  UNL1        0.2102
     15 C         142.3316  140.5479  162.7582 C.ar    1  UNL1       -0.0036
     16 C         141.4528  139.4725  163.3251 C.ar    1  UNL1       -0.0025
     17 C         141.7393  138.9095  164.6856 C.ar    1  UNL1        0.0042
     18 C         142.9046  139.4218  165.4791 C.ar    1  UNL1        0.0536
     19 C         143.7833  140.4972  164.9122 C.ar    1  UNL1        0.0042
     20 C         143.4968  141.0602  163.5517 C.ar    1  UNL1       -0.0025
     21 C         143.1911  138.8588  166.8396 C.2     1  UNL1        0.2490
     22 O         144.1736  137.7362  166.9950 O.2     1  UNL1       -0.2699
     23 N         142.4950  139.4185  168.0448 N.am    1  UNL1       -0.2761
     24 C         142.7815  138.8555  169.4052 C.3     1  UNL1        0.0938
     25 C         142.8197  139.7624  170.5994 C.3     1  UNL1        0.0233
     26 C         141.5125  140.5412  167.8893 C.3     1  UNL1        0.0938
     27 C         140.0435  140.2472  167.8144 C.3     1  UNL1        0.0233
     28 N         142.3839  140.3171  160.1709 N.3     1  UNL1       -0.2643
     29 C         143.5029  140.7607  159.2758 C.3     1  UNL1        0.0901
     30 C         143.8418  139.9668  158.0491 C.3     1  UNL1        0.0900
     31 N         143.0616  138.7294  157.7173 N.3     1  UNL1       -0.2652
     32 C         141.9426  138.2858  158.6123 C.3     1  UNL1        0.0900
     33 C         141.6038  139.0796  159.8391 C.3     1  UNL1        0.0901
     34 C         143.4004  137.9356  156.4905 C.3     1  UNL1        0.1187
     35 C         143.0561  136.4772  156.4221 C.ar    1  UNL1        0.0752
     36 C         141.9444  136.0101  155.5299 C.ar    1  UNL1        0.0161
     37 C         141.6000  134.5518  155.4614 C.ar    1  UNL1        0.0028
     38 C         142.3674  133.5606  156.2851 C.ar    1  UNL1        0.0207
     39 C         143.4792  134.0276  157.1772 C.ar    1  UNL1        0.0985
     40 N         143.8235  135.4859  157.2457 N.ar    1  UNL1       -0.2468
@<TRIPOS>BOND
     1    13    14    1
     2    14    12    1
     3    12     8    1
     4     8     9    2
     5     8    10   am
     6    10     2    1
     7     2     3   ar
     8     3     4   ar
     9     4     5   ar
    10     5     6   ar
    11     6     7   ar
    12     7     1    1
    13     1    15    1
    14    15    16   ar
    15    16    17   ar
    16    17    18   ar
    17    18    21    1
    18    21    22    2
    19    21    23   am
    20    23    24    1
    21    24    25    1
    22    23    26    1
    23    26    27    1
    24    18    19   ar
    25    19    20   ar
    26     1    28    1
    27    28    29    1
    28    29    30    1
    29    30    31    1
    30    31    34    1
    31    34    35    1
    32    35    36   ar
    33    36    37   ar
    34    37    38   ar
    35    38    39   ar
    36    39    40   ar
    37    31    32    1
    38    32    33    1
    39     7     2   ar
    40    20    15   ar
    41    33    28    1
    42    40    35   ar
    43    10    11    1
@<TRIPOS>MOLECULE
*****
 40 43 0 0 0
SMALL
GASTEIGER

@<TRIPOS>ATOM
      1 C         140.5561  141.6007  162.1180 C.3     1  UNL1        0.1043
      2 C         141.1025  143.8617  160.9606 C.ar    1  UNL1        0.0508
      3 C         140.8460  145.3298  160.7915 C.ar    1  UNL1        0.0145
      4 C         139.7864  146.0053  161.6107 C.ar    1  UNL1        0.0013
      5 C         138.9834  145.2125  162.5990 C.ar    1  UNL1       -0.0002
      6 C         139.2400  143.7444  162.7681 C.ar    1  UNL1       -0.0014
      7 C         140.2996  143.0690  161.9489 C.ar    1  UNL1        0.0100
      8 C         143.5933  143.2229  160.5889 C.2     1  UNL1        0.4054
      9 O         143.9650  143.9351  161.8557 O.2     1  UNL1       -0.2261
     10 N         142.1621  143.1862  160.1413 N.am    1  UNL1       -0.2502
     11 H         141.9182  142.7188  159.3099 H       1  UNL1        0.1582
     12 O         144.6528  142.5475  159.7696 O.3     1  UNL1       -0.4345
     13 C         144.2474  140.9635  157.7506 C.3     1  UNL1        0.0513
     14 C         144.4477  142.3458  158.2974 C.3     1  UNL1        0.2102
     15 C         140.9920  141.0640  163.4491 C.ar    1  UNL1       -0.0036
     16 C         140.3391  139.8369  164.0132 C.ar    1  UNL1       -0.0025
     17 C         140.7749  139.3001  165.3444 C.ar    1  UNL1        0.0042
     18 C         141.8636  139.9905  166.1114 C.ar    1  UNL1        0.0536
     19 C         142.5164  141.2175  165.5473 C.ar    1  UNL1        0.0042
     20 C         142.0806  141.7542  164.2162 C.ar    1  UNL1       -0.0025
     21 C         142.2994  139.4537  167.4426 C.2     1  UNL1        0.2490
     22 O         143.5020  138.5619  167.5344 O.2     1  UNL1       -0.2699
     23 N         141.5326  139.8088  168.6820 N.am    1  UNL1       -0.2761
     24 C         141.9684  139.2721  170.0131 C.3     1  UNL1        0.0938
     25 C         143.0567  139.9626  170.7804 C.3     1  UNL1        0.0233
     26 C         140.3300  140.7006  168.5901 C.3     1  UNL1        0.0938
     27 C         139.2373  140.5937  169.6122 C.3     1  UNL1        0.0233
     28 N         140.3769  140.6693  160.9560 N.3     1  UNL1       -0.2643
     29 C         139.0700  140.6304  160.2206 C.3     1  UNL1        0.0901
     30 C         138.8908  139.6990  159.0586 C.3     1  UNL1        0.0900
     31 N         140.0183  138.8065  158.6319 N.3     1  UNL1       -0.2652
     32 C         141.3251  138.8453  159.3672 C.3     1  UNL1        0.0900
     33 C         141.5044  139.7767  160.5293 C.3     1  UNL1        0.0901
     34 C         139.8390  137.8750  157.4699 C.3     1  UNL1        0.1187
     35 C         139.6424  138.4275  156.0892 C.ar    1  UNL1        0.0752
     36 C         140.8213  138.6122  155.1804 C.ar    1  UNL1        0.0161
     37 C         140.6247  139.1646  153.7998 C.ar    1  UNL1        0.0028
     38 C         139.2492  139.5324  153.3280 C.ar    1  UNL1        0.0207
     39 C         138.0702  139.3477  154.2369 C.ar    1  UNL1        0.0985
     40 N         138.2668  138.7953  155.6175 N.ar    1  UNL1       -0.2468
@<TRIPOS>BOND
     1    13    14    1
     2    14    12    1
     3    12     8    1
     4     8     9    2
     5     8    10   am
     6    10     2    1
     7     2     3   ar
     8     3     4   ar
     9     4     5   ar
    10     5     6   ar
    11     6     7   ar
    12     7     1    1
    13     1    15    1
    14    15    16   ar
    15    16    17   ar
    16    17    18   ar
    17    18    21    1
    18    21    22    2
    19    21    23   am
    20    23    24    1
    21    24    25    1
    22    23    26    1
    23    26    27    1
    24    18    19   ar
    25    19    20   ar
    26     1    28    1
    27    28    29    1
    28    29    30    1
    29    30    31    1
    30    31    34    1
    31    34    35    1
    32    35    36   ar
    33    36    37   ar
    34    37    38   ar
    35    38    39   ar
    36    39    40   ar
    37    31    32    1
    38    32    33    1
    39     7     2   ar
    40    20    15   ar
    41    33    28    1
    42    40    35   ar
    43    10    11    1
