@<TRIPOS>MOLECULE
*****
 38 41 0 0 0
SMALL
GASTEIGER

@<TRIPOS>ATOM
      1 C         138.3364  140.1455  159.5594 C.3     1  UNL1        0.0118
      2 C         139.2708  138.9749  159.4794 C.3     1  UNL1        0.0179
      3 C         139.5339  138.1407  160.6979 C.3     1  UNL1        0.0724
      4 N         138.8627  138.4771  161.9964 N.3     1  UNL1       -0.2689
      5 C         137.9283  139.6478  162.0765 C.3     1  UNL1        0.0724
      6 C         137.6652  140.4820  160.8579 C.3     1  UNL1        0.0179
      7 C         138.0733  140.9798  158.3409 C.3     1  UNL1        0.0854
      8 C         140.2755  144.4400  160.1922 C.3     1  UNL1        0.0965
      9 C         141.4178  145.0799  159.4603 C.3     1  UNL1        0.0126
     10 C         141.8260  144.5664  158.1114 C.3     1  UNL1        0.0221
     11 C         141.0920  143.4130  157.4943 C.3     1  UNL1        0.0934
     12 N         139.9497  142.7731  158.2261 N.am    1  UNL1       -0.2790
     13 C         139.2156  141.6197  157.6090 C.2     1  UNL1        0.2256
     14 O         139.6238  141.1062  156.2601 O.2     1  UNL1       -0.2749
     15 C         139.5414  143.2866  159.5751 C.3     1  UNL1        0.1024
     16 N         140.4521  144.3480  162.7826 N.am    1  UNL1       -0.2795
     17 C         139.8672  144.9535  161.5411 C.2     1  UNL1        0.2268
     18 O         138.8741  146.0724  161.6486 O.2     1  UNL1       -0.2748
     19 C         138.7168  144.4718  164.7122 C.3     1  UNL1        0.0233
     20 C         140.0438  144.8615  164.1315 C.3     1  UNL1        0.0935
     21 C         141.4453  143.2290  162.6752 C.3     1  UNL1        0.0935
     22 C         140.9738  141.8051  162.6762 C.3     1  UNL1        0.0233
     23 C         139.1258  137.6428  163.2150 C.3     1  UNL1        0.1007
     24 C         140.2526  137.9990  164.1387 C.ar    1  UNL1        0.0129
     25 C         141.5712  137.2905  164.2351 C.ar    1  UNL1        0.0176
     26 C         142.3923  137.9798  165.2842 C.ar    1  UNL1        0.0799
     27 N         141.5811  139.1144  165.8363 N.ar    1  UNL1       -0.3038
     28 C         140.2588  139.1262  165.1284 C.ar    1  UNL1        0.0772
     29 C         142.0160  140.0694  166.9082 C.ar    1  UNL1        0.0640
     30 C         142.2765  139.5688  168.2980 C.ar    1  UNL1        0.0175
     31 C         142.7113  140.5239  169.3698 C.ar    1  UNL1        0.0053
     32 C         142.8857  141.9793  169.0518 C.ar    1  UNL1        0.0715
     33 C         142.6252  142.4799  167.6620 C.ar    1  UNL1        0.0053
     34 C         142.1903  141.5249  166.5902 C.ar    1  UNL1        0.0175
     35 C         143.3205  142.9343  170.1237 C.3     1  UNL1        0.4186
     36 F         143.7554  143.8893  171.1955 F       1  UNL1       -0.1659
     37 F         144.6867  142.3150  170.1213 F       1  UNL1       -0.1659
     38 F         141.9543  143.5538  170.1261 F       1  UNL1       -0.1659
@<TRIPOS>BOND
     1    19    20    1
     2    20    16    1
     3    16    21    1
     4    21    22    1
     5    16    17   am
     6    17    18    2
     7    17     8    1
     8     8     9    1
     9     9    10    1
    10    10    11    1
    11    11    12    1
    12    12    13   am
    13    13    14    2
    14    13     7    1
    15     7     1    1
    16     1     2    1
    17     2     3    1
    18     3     4    1
    19     4    23    1
    20    23    24    1
    21    24    25   ar
    22    25    26   ar
    23    26    27   ar
    24    27    29    1
    25    29    30   ar
    26    30    31   ar
    27    31    32   ar
    28    32    35    1
    29    35    36    1
    30    35    37    1
    31    35    38    1
    32    32    33   ar
    33    33    34   ar
    34    27    28   ar
    35     4     5    1
    36     5     6    1
    37    12    15    1
    38    15     8    1
    39     6     1    1
    40    28    24   ar
    41    34    29   ar
@<TRIPOS>MOLECULE
*****
 38 41 0 0 0
SMALL
GASTEIGER

@<TRIPOS>ATOM
      1 C         142.5331  141.8872  159.9810 C.3     1  UNL1        0.0118
      2 C         142.0005  140.4884  160.0777 C.3     1  UNL1        0.0179
      3 C         142.5764  139.5343  161.0816 C.3     1  UNL1        0.0724
      4 N         143.6850  139.9791  161.9889 N.3     1  UNL1       -0.2689
      5 C         144.2176  141.3780  161.8922 C.3     1  UNL1        0.0724
      6 C         143.6417  142.3321  160.8883 C.3     1  UNL1        0.0179
      7 C         141.9571  142.8414  158.9770 C.3     1  UNL1        0.0854
      8 C         138.9768  143.5058  162.2825 C.3     1  UNL1        0.0965
      9 C         138.6143  144.9013  162.6961 C.3     1  UNL1        0.0126
     10 C         139.2452  146.0753  162.0079 C.3     1  UNL1        0.0221
     11 C         140.2386  145.8539  160.9061 C.3     1  UNL1        0.0934
     12 N         140.6011  144.4584  160.4925 N.am    1  UNL1       -0.2790
     13 C         141.5946  144.2369  159.3906 C.2     1  UNL1        0.2256
     14 O         142.2255  145.4109  158.7024 O.2     1  UNL1       -0.2749
     15 C         139.9702  143.2844  161.1807 C.3     1  UNL1        0.1024
     16 N         138.9186  141.8214  164.2597 N.am    1  UNL1       -0.2795
     17 C         138.3459  142.3318  162.9707 C.2     1  UNL1        0.2268
     18 O         137.1424  141.6681  162.3699 O.2     1  UNL1       -0.2748
     19 C         138.8165  139.2643  164.7078 C.3     1  UNL1        0.0233
     20 C         138.2877  140.6473  164.9479 C.3     1  UNL1        0.0935
     21 C         140.1222  142.4850  164.8605 C.3     1  UNL1        0.0935
     22 C         139.9518  143.5090  165.9433 C.3     1  UNL1        0.0233
     23 C         144.2610  139.0250  162.9929 C.3     1  UNL1        0.1007
     24 C         143.8402  139.1045  164.4305 C.ar    1  UNL1        0.0129
     25 C         144.2050  138.1303  165.5111 C.ar    1  UNL1        0.0176
     26 C         143.5709  138.5958  166.7883 C.ar    1  UNL1        0.0799
     27 N         142.8141  139.8578  166.4970 N.ar    1  UNL1       -0.3038
     28 C         142.9805  140.1721  165.0398 C.ar    1  UNL1        0.0772
     29 C         142.0288  140.6638  167.4887 C.ar    1  UNL1        0.0640
     30 C         140.6394  140.2423  167.8654 C.ar    1  UNL1        0.0175
     31 C         139.8542  141.0484  168.8572 C.ar    1  UNL1        0.0053
     32 C         140.4583  142.2759  169.4723 C.ar    1  UNL1        0.0715
     33 C         141.8477  142.6974  169.0956 C.ar    1  UNL1        0.0053
     34 C         142.6330  141.8913  168.1038 C.ar    1  UNL1        0.0175
     35 C         139.6730  143.0819  170.4640 C.3     1  UNL1        0.4186
     36 F         138.8877  143.8879  171.4558 F       1  UNL1       -0.1659
     37 F         140.5846  144.2510  170.2358 F       1  UNL1       -0.1659
     38 F         138.7613  141.9128  170.6923 F       1  UNL1       -0.1659
@<TRIPOS>BOND
     1    19    20    1
     2    20    16    1
     3    16    21    1
     4    21    22    1
     5    16    17   am
     6    17    18    2
     7    17     8    1
     8     8     9    1
     9     9    10    1
    10    10    11    1
    11    11    12    1
    12    12    13   am
    13    13    14    2
    14    13     7    1
    15     7     1    1
    16     1     2    1
    17     2     3    1
    18     3     4    1
    19     4    23    1
    20    23    24    1
    21    24    25   ar
    22    25    26   ar
    23    26    27   ar
    24    27    29    1
    25    29    30   ar
    26    30    31   ar
    27    31    32   ar
    28    32    35    1
    29    35    36    1
    30    35    37    1
    31    35    38    1
    32    32    33   ar
    33    33    34   ar
    34    27    28   ar
    35     4     5    1
    36     5     6    1
    37    12    15    1
    38    15     8    1
    39     6     1    1
    40    28    24   ar
    41    34    29   ar
@<TRIPOS>MOLECULE
*****
 38 41 0 0 0
SMALL
GASTEIGER

@<TRIPOS>ATOM
      1 C         140.0733  139.4076  160.0200 C.3     1  UNL1        0.0118
      2 C         141.0762  138.5909  160.7797 C.3     1  UNL1        0.0179
      3 C         140.6830  137.9275  162.0662 C.3     1  UNL1        0.0724
      4 N         139.2869  138.0807  162.5930 N.3     1  UNL1       -0.2689
      5 C         138.2841  138.8974  161.8333 C.3     1  UNL1        0.0724
      6 C         138.6772  139.5608  160.5467 C.3     1  UNL1        0.0179
      7 C         140.4665  140.0711  158.7333 C.3     1  UNL1        0.0854
      8 C         141.8206  143.7563  160.9323 C.3     1  UNL1        0.0965
      9 C         141.2489  145.0959  160.5740 C.3     1  UNL1        0.0126
     10 C         140.2258  145.2072  159.4827 C.3     1  UNL1        0.0221
     11 C         139.7744  143.9788  158.7498 C.3     1  UNL1        0.0934
     12 N         140.3461  142.6392  159.1081 N.am    1  UNL1       -0.2790
     13 C         139.8948  141.4107  158.3751 C.2     1  UNL1        0.2256
     14 O         138.8717  141.5220  157.2838 O.2     1  UNL1       -0.2749
     15 C         141.3692  142.5279  160.1993 C.3     1  UNL1        0.1024
     16 N         142.4062  143.4444  163.4442 N.am    1  UNL1       -0.2795
     17 C         142.8437  143.6450  162.0236 C.2     1  UNL1        0.2268
     18 O         144.3043  143.7344  161.6942 O.2     1  UNL1       -0.2748
     19 C         143.2648  142.3056  165.6159 C.3     1  UNL1        0.0233
     20 C         143.4293  143.3331  164.5355 C.3     1  UNL1        0.0935
     21 C         140.9455  143.3551  163.7737 C.3     1  UNL1        0.0935
     22 C         140.2275  142.0440  163.6495 C.3     1  UNL1        0.0233
     23 C         138.8937  137.4172  163.8796 C.3     1  UNL1        0.1007
     24 C         138.9817  138.1744  165.1714 C.ar    1  UNL1        0.0129
     25 C         137.9189  138.2424  166.2277 C.ar    1  UNL1        0.0176
     26 C         138.4283  139.1066  167.3429 C.ar    1  UNL1        0.0799
     27 N         139.8060  139.5728  166.9758 N.ar    1  UNL1       -0.3038
     28 C         140.1480  138.9967  165.6338 C.ar    1  UNL1        0.0772
     29 C         140.6869  140.4594  167.8052 C.ar    1  UNL1        0.0640
     30 C         140.3608  141.9163  167.9504 C.ar    1  UNL1        0.0175
     31 C         141.2418  142.8029  168.7798 C.ar    1  UNL1        0.0053
     32 C         142.4487  142.2327  169.4639 C.ar    1  UNL1        0.0715
     33 C         142.7748  140.7758  169.3186 C.ar    1  UNL1        0.0053
     34 C         141.8939  139.8892  168.4893 C.ar    1  UNL1        0.0175
     35 C         143.3296  143.1193  170.2932 C.3     1  UNL1        0.4186
     36 F         144.2105  144.0060  171.1226 F       1  UNL1       -0.1659
     37 F         144.5034  142.2355  169.9914 F       1  UNL1       -0.1659
     38 F         142.1558  144.0033  170.5951 F       1  UNL1       -0.1659
@<TRIPOS>BOND
     1    19    20    1
     2    20    16    1
     3    16    21    1
     4    21    22    1
     5    16    17   am
     6    17    18    2
     7    17     8    1
     8     8     9    1
     9     9    10    1
    10    10    11    1
    11    11    12    1
    12    12    13   am
    13    13    14    2
    14    13     7    1
    15     7     1    1
    16     1     2    1
    17     2     3    1
    18     3     4    1
    19     4    23    1
    20    23    24    1
    21    24    25   ar
    22    25    26   ar
    23    26    27   ar
    24    27    29    1
    25    29    30   ar
    26    30    31   ar
    27    31    32   ar
    28    32    35    1
    29    35    36    1
    30    35    37    1
    31    35    38    1
    32    32    33   ar
    33    33    34   ar
    34    27    28   ar
    35     4     5    1
    36     5     6    1
    37    12    15    1
    38    15     8    1
    39     6     1    1
    40    28    24   ar
    41    34    29   ar
@<TRIPOS>MOLECULE
*****
 38 41 0 0 0
SMALL
GASTEIGER

@<TRIPOS>ATOM
      1 C         143.8003  142.7764  158.1318 C.3     1  UNL1        0.0118
      2 C         143.9418  142.7938  159.6250 C.3     1  UNL1        0.0179
      3 C         143.0058  143.6189  160.4575 C.3     1  UNL1        0.0724
      4 N         141.9283  144.4266  159.7968 N.3     1  UNL1       -0.2689
      5 C         141.7867  144.4092  158.3036 C.3     1  UNL1        0.0724
      6 C         142.7227  143.5841  157.4711 C.3     1  UNL1        0.0179
      7 C         144.7363  141.9513  157.2992 C.3     1  UNL1        0.0854
      8 C         142.8703  138.1691  158.8688 C.3     1  UNL1        0.0965
      9 C         142.3240  137.1499  157.9134 C.3     1  UNL1        0.0126
     10 C         142.3997  137.3914  156.4349 C.3     1  UNL1        0.0221
     11 C         143.0216  138.6521  155.9118 C.3     1  UNL1        0.0934
     12 N         143.5679  139.6713  156.8671 N.am    1  UNL1       -0.2790
     13 C         144.1900  140.9320  156.3439 C.2     1  UNL1        0.2256
     14 O         144.2657  141.1735  154.8654 O.2     1  UNL1       -0.2749
     15 C         143.4922  139.4298  158.3456 C.3     1  UNL1        0.1024
     16 N         141.4897  138.0928  161.0683 N.am    1  UNL1       -0.2795
     17 C         142.7946  137.9277  160.3473 C.2     1  UNL1        0.2268
     18 O         144.0237  137.5211  161.1047 O.2     1  UNL1       -0.2748
     19 C         141.6728  138.9764  163.5047 C.3     1  UNL1        0.0233
     20 C         141.4140  137.8513  162.5468 C.3     1  UNL1        0.0935
     21 C         140.2604  138.4994  160.3109 C.3     1  UNL1        0.0935
     22 C         138.9020  138.1528  160.8442 C.3     1  UNL1        0.0233
     23 C         140.9923  145.2517  160.6294 C.3     1  UNL1        0.1007
     24 C         140.3927  144.6755  161.8777 C.ar    1  UNL1        0.0129
     25 C         139.8971  145.4555  163.0591 C.ar    1  UNL1        0.0176
     26 C         139.3816  144.4802  164.0755 C.ar    1  UNL1        0.0799
     27 N         139.5587  143.0972  163.5221 N.ar    1  UNL1       -0.3038
     28 C         140.1836  143.2179  162.1639 C.ar    1  UNL1        0.0772
     29 C         139.1777  141.8181  164.2069 C.ar    1  UNL1        0.0640
     30 C         138.3485  140.7985  163.4839 C.ar    1  UNL1        0.0175
     31 C         137.9676  139.5195  164.1687 C.ar    1  UNL1        0.0053
     32 C         138.4159  139.2600  165.5764 C.ar    1  UNL1        0.0715
     33 C         139.2451  140.2796  166.2994 C.ar    1  UNL1        0.0053
     34 C         139.6260  141.5587  165.6146 C.ar    1  UNL1        0.0175
     35 C         138.0349  137.9810  166.2611 C.3     1  UNL1        0.4186
     36 F         137.6540  136.7019  166.9458 F       1  UNL1       -0.1659
     37 F         138.8212  137.2040  165.2472 F       1  UNL1       -0.1659
     38 F         137.2486  138.7580  167.2751 F       1  UNL1       -0.1659
@<TRIPOS>BOND
     1    19    20    1
     2    20    16    1
     3    16    21    1
     4    21    22    1
     5    16    17   am
     6    17    18    2
     7    17     8    1
     8     8     9    1
     9     9    10    1
    10    10    11    1
    11    11    12    1
    12    12    13   am
    13    13    14    2
    14    13     7    1
    15     7     1    1
    16     1     2    1
    17     2     3    1
    18     3     4    1
    19     4    23    1
    20    23    24    1
    21    24    25   ar
    22    25    26   ar
    23    26    27   ar
    24    27    29    1
    25    29    30   ar
    26    30    31   ar
    27    31    32   ar
    28    32    35    1
    29    35    36    1
    30    35    37    1
    31    35    38    1
    32    32    33   ar
    33    33    34   ar
    34    27    28   ar
    35     4     5    1
    36     5     6    1
    37    12    15    1
    38    15     8    1
    39     6     1    1
    40    28    24   ar
    41    34    29   ar
@<TRIPOS>MOLECULE
*****
 38 41 0 0 0
SMALL
GASTEIGER

@<TRIPOS>ATOM
      1 C         138.8117  140.3467  158.6222 C.3     1  UNL1        0.0118
      2 C         138.1845  140.1091  159.9638 C.3     1  UNL1        0.0179
      3 C         138.8831  139.2517  160.9771 C.3     1  UNL1        0.0724
      4 N         140.2091  138.6320  160.6487 N.3     1  UNL1       -0.2689
      5 C         140.8364  138.8697  159.3071 C.3     1  UNL1        0.0724
      6 C         140.1377  139.7270  158.2939 C.3     1  UNL1        0.0179
      7 C         138.1131  141.2042  157.6089 C.3     1  UNL1        0.0854
      8 C         140.3280  144.7748  159.2197 C.3     1  UNL1        0.0965
      9 C         141.1268  145.6425  158.2930 C.3     1  UNL1        0.0126
     10 C         141.1873  145.3201  156.8293 C.3     1  UNL1        0.0221
     11 C         140.4490  144.1299  156.2923 C.3     1  UNL1        0.0934
     12 N         139.6502  143.2622  157.2191 N.am    1  UNL1       -0.2790
     13 C         138.9119  142.0719  156.6821 C.2     1  UNL1        0.2256
     14 O         138.9724  141.7495  155.2185 O.2     1  UNL1       -0.2749
     15 C         139.5897  143.5846  158.6828 C.3     1  UNL1        0.1024
     16 N         141.0474  144.2744  161.6655 N.am    1  UNL1       -0.2795
     17 C         140.2675  145.0972  160.6834 C.2     1  UNL1        0.2268
     18 O         139.4271  146.2425  161.1649 O.2     1  UNL1       -0.2748
     19 C         142.0481  145.4541  163.7528 C.3     1  UNL1        0.0233
     20 C         140.9869  144.5968  163.1292 C.3     1  UNL1        0.0935
     21 C         141.8879  143.1290  161.1840 C.3     1  UNL1        0.0935
     22 C         142.6205  142.2694  162.1710 C.3     1  UNL1        0.0233
     23 C         140.9077  137.7746  161.6621 C.3     1  UNL1        0.1007
     24 C         141.8605  138.3950  162.6404 C.ar    1  UNL1        0.0129
     25 C         143.3569  138.3933  162.5359 C.ar    1  UNL1        0.0176
     26 C         143.9054  139.1234  163.7259 C.ar    1  UNL1        0.0799
     27 N         142.7481  139.5764  164.5659 N.ar    1  UNL1       -0.3038
     28 C         141.4843  139.1262  163.8949 C.ar    1  UNL1        0.0772
     29 C         142.8387  140.3445  165.8510 C.ar    1  UNL1        0.0640
     30 C         143.2205  141.7950  165.8324 C.ar    1  UNL1        0.0175
     31 C         143.3110  142.5632  167.1176 C.ar    1  UNL1        0.0053
     32 C         143.0198  141.8809  168.4213 C.ar    1  UNL1        0.0715
     33 C         142.6380  140.4305  168.4399 C.ar    1  UNL1        0.0053
     34 C         142.5474  139.6623  167.1547 C.ar    1  UNL1        0.0175
     35 C         143.1104  142.6491  169.7065 C.3     1  UNL1        0.4186
     36 F         143.2010  143.4173  170.9916 F       1  UNL1       -0.1659
     37 F         141.6152  142.7617  169.7446 F       1  UNL1       -0.1659
     38 F         144.6058  142.5366  169.6684 F       1  UNL1       -0.1659
@<TRIPOS>BOND
     1    19    20    1
     2    20    16    1
     3    16    21    1
     4    21    22    1
     5    16    17   am
     6    17    18    2
     7    17     8    1
     8     8     9    1
     9     9    10    1
    10    10    11    1
    11    11    12    1
    12    12    13   am
    13    13    14    2
    14    13     7    1
    15     7     1    1
    16     1     2    1
    17     2     3    1
    18     3     4    1
    19     4    23    1
    20    23    24    1
    21    24    25   ar
    22    25    26   ar
    23    26    27   ar
    24    27    29    1
    25    29    30   ar
    26    30    31   ar
    27    31    32   ar
    28    32    35    1
    29    35    36    1
    30    35    37    1
    31    35    38    1
    32    32    33   ar
    33    33    34   ar
    34    27    28   ar
    35     4     5    1
    36     5     6    1
    37    12    15    1
    38    15     8    1
    39     6     1    1
    40    28    24   ar
    41    34    29   ar
@<TRIPOS>MOLECULE
*****
 38 41 0 0 0
SMALL
GASTEIGER

@<TRIPOS>ATOM
      1 C         140.1592  138.1801  161.5977 C.3     1  UNL1        0.0118
      2 C         139.4396  138.4127  160.3024 C.3     1  UNL1        0.0179
      3 C         140.2089  138.4631  159.0157 C.3     1  UNL1        0.0724
      4 N         141.6978  138.2811  159.0244 N.3     1  UNL1       -0.2689
      5 C         142.4174  138.0485  160.3198 C.3     1  UNL1        0.0724
      6 C         141.6481  137.9981  161.6064 C.3     1  UNL1        0.0179
      7 C         139.3899  138.1296  162.8845 C.3     1  UNL1        0.0854
      8 C         139.6267  142.0955  164.9978 C.3     1  UNL1        0.0965
      9 C         140.3486  142.2052  166.3080 C.3     1  UNL1        0.0126
     10 C         140.9917  140.9930  166.9138 C.3     1  UNL1        0.0221
     11 C         140.9127  139.6711  166.2094 C.3     1  UNL1        0.0934
     12 N         140.1908  139.5613  164.8992 N.am    1  UNL1       -0.2790
     13 C         140.1119  138.2394  164.1947 C.2     1  UNL1        0.2256
     14 O         140.7549  137.0271  164.8006 O.2     1  UNL1       -0.2749
     15 C         139.5478  140.7736  164.2934 C.3     1  UNL1        0.1024
     16 N         139.7599  144.1745  163.4453 N.am    1  UNL1       -0.2795
     17 C         138.9836  143.3077  164.3919 C.2     1  UNL1        0.2268
     18 O         137.5643  143.6532  164.7327 O.2     1  UNL1       -0.2748
     19 C         139.8293  146.1569  161.7674 C.3     1  UNL1        0.0233
     20 C         139.1169  145.3867  162.8395 C.3     1  UNL1        0.0935
     21 C         141.1793  143.8290  163.1045 C.3     1  UNL1        0.0935
     22 C         142.3066  144.4255  163.8940 C.3     1  UNL1        0.0233
     23 C         142.4671  138.3315  157.7376 C.3     1  UNL1        0.1007
     24 C         142.9563  137.0620  157.1060 C.ar    1  UNL1        0.0129
     25 C         143.5437  136.9303  155.7321 C.ar    1  UNL1        0.0176
     26 C         143.8944  135.4882  155.5143 C.ar    1  UNL1        0.0799
     27 N         143.5237  134.7287  156.7536 N.ar    1  UNL1       -0.3038
     28 C         142.9439  135.7014  157.7373 C.ar    1  UNL1        0.0772
     29 C         143.7016  133.2552  156.9710 C.ar    1  UNL1        0.0640
     30 C         142.7349  132.2849  156.3597 C.ar    1  UNL1        0.0175
     31 C         142.9128  130.8114  156.5771 C.ar    1  UNL1        0.0053
     32 C         144.0574  130.3084  157.4057 C.ar    1  UNL1        0.0715
     33 C         145.0241  131.2787  158.0171 C.ar    1  UNL1        0.0053
     34 C         144.8463  132.7522  157.7997 C.ar    1  UNL1        0.0175
     35 C         144.2353  128.8349  157.6231 C.3     1  UNL1        0.4186
     36 F         144.4131  127.3615  157.8405 F       1  UNL1       -0.1659
     37 F         143.0994  128.5591  156.6831 F       1  UNL1       -0.1659
     38 F         145.3712  129.1107  158.5633 F       1  UNL1       -0.1659
@<TRIPOS>BOND
     1    19    20    1
     2    20    16    1
     3    16    21    1
     4    21    22    1
     5    16    17   am
     6    17    18    2
     7    17     8    1
     8     8     9    1
     9     9    10    1
    10    10    11    1
    11    11    12    1
    12    12    13   am
    13    13    14    2
    14    13     7    1
    15     7     1    1
    16     1     2    1
    17     2     3    1
    18     3     4    1
    19     4    23    1
    20    23    24    1
    21    24    25   ar
    22    25    26   ar
    23    26    27   ar
    24    27    29    1
    25    29    30   ar
    26    30    31   ar
    27    31    32   ar
    28    32    35    1
    29    35    36    1
    30    35    37    1
    31    35    38    1
    32    32    33   ar
    33    33    34   ar
    34    27    28   ar
    35     4     5    1
    36     5     6    1
    37    12    15    1
    38    15     8    1
    39     6     1    1
    40    28    24   ar
    41    34    29   ar
@<TRIPOS>MOLECULE
*****
 38 41 0 0 0
SMALL
GASTEIGER

@<TRIPOS>ATOM
      1 C         139.9528  144.0442  159.2854 C.3     1  UNL1        0.0118
      2 C         140.1473  144.9151  160.4910 C.3     1  UNL1        0.0179
      3 C         139.4066  144.6150  161.7603 C.3     1  UNL1        0.0724
      4 N         138.4713  143.4441  161.8240 N.3     1  UNL1       -0.2689
      5 C         138.2768  142.5732  160.6184 C.3     1  UNL1        0.0724
      6 C         139.0175  142.8732  159.3491 C.3     1  UNL1        0.0179
      7 C         140.6935  144.3442  158.0159 C.3     1  UNL1        0.0854
      8 C         143.6067  141.3414  159.6732 C.3     1  UNL1        0.0965
      9 C         144.0994  140.2187  158.8091 C.3     1  UNL1        0.0126
     10 C         143.6212  140.0969  157.3926 C.3     1  UNL1        0.0221
     11 C         142.6501  141.0978  156.8402 C.3     1  UNL1        0.0934
     12 N         142.1574  142.2205  157.7043 N.am    1  UNL1       -0.2790
     13 C         141.1863  143.2215  157.1519 C.2     1  UNL1        0.2256
     14 O         140.7080  143.0997  155.7354 O.2     1  UNL1       -0.2749
     15 C         142.6356  142.3423  159.1208 C.3     1  UNL1        0.1024
     16 N         143.4221  140.6691  162.1759 N.am    1  UNL1       -0.2795
     17 C         144.0849  141.4632  161.0897 C.2     1  UNL1        0.2268
     18 O         145.2260  142.3790  161.4198 O.2     1  UNL1       -0.2748
     19 C         144.8466  139.7718  164.1548 C.3     1  UNL1        0.0233
     20 C         143.9004  140.7909  163.5924 C.3     1  UNL1        0.0935
     21 C         142.2809  139.7532  161.8458 C.3     1  UNL1        0.0935
     22 C         140.8686  140.2481  161.9472 C.3     1  UNL1        0.0233
     23 C         137.7306  143.1440  163.0935 C.3     1  UNL1        0.1007
     24 C         138.1942  142.0324  163.9875 C.ar    1  UNL1        0.0129
     25 C         137.7385  140.6046  163.9278 C.ar    1  UNL1        0.0176
     26 C         138.4575  139.8432  165.0016 C.ar    1  UNL1        0.0799
     27 N         139.3578  140.8005  165.7250 N.ar    1  UNL1       -0.3038
     28 C         139.1950  142.1535  165.0983 C.ar    1  UNL1        0.0772
     29 C         140.2620  140.4638  166.8735 C.ar    1  UNL1        0.0640
     30 C         139.7807  140.6394  168.2834 C.ar    1  UNL1        0.0175
     31 C         140.6850  140.3027  169.4318 C.ar    1  UNL1        0.0053
     32 C         142.0703  139.7905  169.1705 C.ar    1  UNL1        0.0715
     33 C         142.5516  139.6149  167.7607 C.ar    1  UNL1        0.0053
     34 C         141.6474  139.9516  166.6122 C.ar    1  UNL1        0.0175
     35 C         142.9745  139.4538  170.3190 C.3     1  UNL1        0.4186
     36 F         143.8787  139.1171  171.4675 F       1  UNL1       -0.1659
     37 F         143.3487  140.9006  170.4486 F       1  UNL1       -0.1659
     38 F         142.6004  138.0069  170.1895 F       1  UNL1       -0.1659
@<TRIPOS>BOND
     1    19    20    1
     2    20    16    1
     3    16    21    1
     4    21    22    1
     5    16    17   am
     6    17    18    2
     7    17     8    1
     8     8     9    1
     9     9    10    1
    10    10    11    1
    11    11    12    1
    12    12    13   am
    13    13    14    2
    14    13     7    1
    15     7     1    1
    16     1     2    1
    17     2     3    1
    18     3     4    1
    19     4    23    1
    20    23    24    1
    21    24    25   ar
    22    25    26   ar
    23    26    27   ar
    24    27    29    1
    25    29    30   ar
    26    30    31   ar
    27    31    32   ar
    28    32    35    1
    29    35    36    1
    30    35    37    1
    31    35    38    1
    32    32    33   ar
    33    33    34   ar
    34    27    28   ar
    35     4     5    1
    36     5     6    1
    37    12    15    1
    38    15     8    1
    39     6     1    1
    40    28    24   ar
    41    34    29   ar
@<TRIPOS>MOLECULE
*****
 38 41 0 0 0
SMALL
GASTEIGER

@<TRIPOS>ATOM
      1 C         138.9797  139.8536  158.6101 C.3     1  UNL1        0.0118
      2 C         140.0062  138.8744  159.0974 C.3     1  UNL1        0.0179
      3 C         139.8869  138.2842  160.4712 C.3     1  UNL1        0.0724
      4 N         138.7410  138.6732  161.3577 N.3     1  UNL1       -0.2689
      5 C         137.7146  139.6524  160.8703 C.3     1  UNL1        0.0724
      6 C         137.8339  140.2426  159.4965 C.3     1  UNL1        0.0179
      7 C         139.0990  140.4439  157.2362 C.3     1  UNL1        0.0854
      8 C         142.1681  143.4419  158.5936 C.3     1  UNL1        0.0965
      9 C         141.9287  144.9077  158.3837 C.3     1  UNL1        0.0126
     10 C         140.6663  145.3742  157.7213 C.3     1  UNL1        0.0221
     11 C         139.6433  144.3748  157.2689 C.3     1  UNL1        0.0934
     12 N         139.8827  142.9091  157.4788 N.am    1  UNL1       -0.2790
     13 C         138.8596  141.9096  157.0263 C.2     1  UNL1        0.2256
     14 O         137.5973  142.3761  156.3639 O.2     1  UNL1       -0.2749
     15 C         141.1451  142.4426  158.1412 C.3     1  UNL1        0.1024
     16 N         143.4462  142.6999  160.7304 N.am    1  UNL1       -0.2795
     17 C         143.4305  142.9755  159.2560 C.2     1  UNL1        0.2268
     18 O         144.6771  142.7846  158.4441 O.2     1  UNL1       -0.2748
     19 C         144.6885  141.0207  162.2754 C.3     1  UNL1        0.0233
     20 C         144.7086  142.2335  161.3928 C.3     1  UNL1        0.0935
     21 C         142.1995  142.8908  161.5424 C.3     1  UNL1        0.0935
     22 C         141.2420  141.7509  161.7258 C.3     1  UNL1        0.0233
     23 C         138.6217  138.0829  162.7315 C.3     1  UNL1        0.1007
     24 C         139.7131  138.2982  163.7377 C.ar    1  UNL1        0.0129
     25 C         140.9135  137.4212  163.9377 C.ar    1  UNL1        0.0176
     26 C         141.7381  138.0093  165.0441 C.ar    1  UNL1        0.0799
     27 N         141.0473  139.2498  165.5280 N.ar    1  UNL1       -0.3038
     28 C         139.7959  139.4284  164.7206 C.ar    1  UNL1        0.0772
     29 C         141.5243  140.1531  166.6264 C.ar    1  UNL1        0.0640
     30 C         142.6135  141.1491  166.3585 C.ar    1  UNL1        0.0175
     31 C         143.0904  142.0524  167.4570 C.ar    1  UNL1        0.0053
     32 C         142.4783  141.9597  168.8232 C.ar    1  UNL1        0.0715
     33 C         141.3892  140.9637  169.0911 C.ar    1  UNL1        0.0053
     34 C         140.9122  140.0604  167.9927 C.ar    1  UNL1        0.0175
     35 C         142.9554  142.8630  169.9216 C.3     1  UNL1        0.4186
     36 F         143.4324  143.7663  171.0200 F       1  UNL1       -0.1659
     37 F         144.2707  142.1423  169.9430 F       1  UNL1       -0.1659
     38 F         141.6400  143.5837  169.9001 F       1  UNL1       -0.1659
@<TRIPOS>BOND
     1    19    20    1
     2    20    16    1
     3    16    21    1
     4    21    22    1
     5    16    17   am
     6    17    18    2
     7    17     8    1
     8     8     9    1
     9     9    10    1
    10    10    11    1
    11    11    12    1
    12    12    13   am
    13    13    14    2
    14    13     7    1
    15     7     1    1
    16     1     2    1
    17     2     3    1
    18     3     4    1
    19     4    23    1
    20    23    24    1
    21    24    25   ar
    22    25    26   ar
    23    26    27   ar
    24    27    29    1
    25    29    30   ar
    26    30    31   ar
    27    31    32   ar
    28    32    35    1
    29    35    36    1
    30    35    37    1
    31    35    38    1
    32    32    33   ar
    33    33    34   ar
    34    27    28   ar
    35     4     5    1
    36     5     6    1
    37    12    15    1
    38    15     8    1
    39     6     1    1
    40    28    24   ar
    41    34    29   ar
@<TRIPOS>MOLECULE
*****
 38 41 0 0 0
SMALL
GASTEIGER

@<TRIPOS>ATOM
      1 C         139.3389  141.8951  158.7448 C.3     1  UNL1        0.0118
      2 C         138.6513  142.4954  159.9351 C.3     1  UNL1        0.0179
      3 C         138.1543  141.6103  161.0394 C.3     1  UNL1        0.0724
      4 N         138.3448  140.1249  160.9533 N.3     1  UNL1       -0.2689
      5 C         139.0324  139.5247  159.7630 C.3     1  UNL1        0.0724
      6 C         139.5294  140.4098  158.6588 C.3     1  UNL1        0.0179
      7 C         139.8361  142.7803  157.6405 C.3     1  UNL1        0.0854
      8 C         143.4959  142.9779  160.2513 C.3     1  UNL1        0.0965
      9 C         144.8538  142.7460  159.6579 C.3     1  UNL1        0.0126
     10 C         144.9919  142.4481  158.1943 C.3     1  UNL1        0.0221
     11 C         143.7720  142.3822  157.3240 C.3     1  UNL1        0.0934
     12 N         142.4140  142.6142  157.9174 N.am    1  UNL1       -0.2790
     13 C         141.1940  142.5483  157.0471 C.2     1  UNL1        0.2256
     14 O         141.3320  142.2505  155.5835 O.2     1  UNL1       -0.2749
     15 C         142.2760  142.9120  159.3810 C.3     1  UNL1        0.1024
     16 N         142.7105  142.2755  162.6261 N.am    1  UNL1       -0.2795
     17 C         143.3579  143.2758  161.7149 C.2     1  UNL1        0.2268
     18 O         143.8672  144.5740  162.2674 O.2     1  UNL1       -0.2748
     19 C         143.7305  142.3416  165.0147 C.3     1  UNL1        0.0233
     20 C         142.5725  142.5733  164.0897 C.3     1  UNL1        0.0935
     21 C         142.2012  140.9772  162.0736 C.3     1  UNL1        0.0935
     22 C         142.6787  139.6777  162.6508 C.3     1  UNL1        0.0233
     23 C         137.8476  139.2398  162.0577 C.3     1  UNL1        0.1007
     24 C         138.6476  139.0918  163.3178 C.ar    1  UNL1        0.0129
     25 C         139.0467  137.7972  163.9618 C.ar    1  UNL1        0.0176
     26 C         139.8346  138.1176  165.1973 C.ar    1  UNL1        0.0799
     27 N         139.9225  139.6103  165.3169 N.ar    1  UNL1       -0.3038
     28 C         139.1889  140.2123  164.1553 C.ar    1  UNL1        0.0772
     29 C         140.6214  140.3679  166.4067 C.ar    1  UNL1        0.0640
     30 C         140.0626  141.6734  166.8897 C.ar    1  UNL1        0.0175
     31 C         140.7615  142.4309  167.9796 C.ar    1  UNL1        0.0053
     32 C         142.0190  141.8830  168.5863 C.ar    1  UNL1        0.0715
     33 C         142.5778  140.5775  168.1033 C.ar    1  UNL1        0.0053
     34 C         141.8790  139.8199  167.0135 C.ar    1  UNL1        0.0175
     35 C         142.7178  142.6406  169.6761 C.3     1  UNL1        0.4186
     36 F         143.4167  143.3982  170.7660 F       1  UNL1       -0.1659
     37 F         143.8239  141.6274  169.6712 F       1  UNL1       -0.1659
     38 F         141.6117  143.6539  169.6811 F       1  UNL1       -0.1659
@<TRIPOS>BOND
     1    19    20    1
     2    20    16    1
     3    16    21    1
     4    21    22    1
     5    16    17   am
     6    17    18    2
     7    17     8    1
     8     8     9    1
     9     9    10    1
    10    10    11    1
    11    11    12    1
    12    12    13   am
    13    13    14    2
    14    13     7    1
    15     7     1    1
    16     1     2    1
    17     2     3    1
    18     3     4    1
    19     4    23    1
    20    23    24    1
    21    24    25   ar
    22    25    26   ar
    23    26    27   ar
    24    27    29    1
    25    29    30   ar
    26    30    31   ar
    27    31    32   ar
    28    32    35    1
    29    35    36    1
    30    35    37    1
    31    35    38    1
    32    32    33   ar
    33    33    34   ar
    34    27    28   ar
    35     4     5    1
    36     5     6    1
    37    12    15    1
    38    15     8    1
    39     6     1    1
    40    28    24   ar
    41    34    29   ar
