@<TRIPOS>MOLECULE
*****
 33 36 0 0 0
SMALL
GASTEIGER

@<TRIPOS>ATOM
      1 C         143.9210  141.2559  159.8955 C.2     1  UNL1        0.2648
      2 O         144.0488  139.7899  160.1859 O.2     1  UNL1       -0.2684
      3 N         144.2778  141.7856  158.5383 N.am    1  UNL1       -0.2982
      4 H         144.1939  142.7478  158.3477 H       1  UNL1        0.1498
      5 C         143.7510  145.1340  163.4750 C.3     1  UNL1        0.0722
      6 C         143.3582  143.9749  162.6076 C.ar    1  UNL1        0.1245
      7 N         144.2318  143.2954  161.5952 N.ar    1  UNL1       -0.2264
      8 C         143.4363  142.1924  160.9623 C.ar    1  UNL1        0.1476
      9 C         142.0710  142.1902  161.5836 C.ar    1  UNL1        0.0648
     10 C         140.9507  141.2512  161.2471 C.3     1  UNL1        0.0522
     11 N         142.0227  143.2918  162.6004 N.ar    1  UNL1       -0.2972
     12 C         140.8456  143.6480  163.4593 C.ar    1  UNL1        0.0648
     13 C         139.6692  144.3610  162.8613 C.ar    1  UNL1        0.0175
     14 C         138.4922  144.7171  163.7202 C.ar    1  UNL1        0.0015
     15 C         138.4914  144.3602  165.1771 C.ar    1  UNL1        0.0001
     16 C         139.6679  143.6471  165.7752 C.ar    1  UNL1        0.0015
     17 C         140.8449  143.2910  164.9162 C.ar    1  UNL1        0.0175
     18 C         144.7625  140.8491  157.4714 C.3     1  UNL1        0.1070
     19 C         143.7810  140.1978  156.5427 C.3     1  UNL1        0.0937
     20 N         143.6372  138.7047  156.5305 N.3     1  UNL1       -0.2683
     21 C         142.7981  138.0235  157.5706 C.3     1  UNL1        0.0939
     22 C         142.6543  136.5305  157.5583 C.3     1  UNL1        0.1081
     23 N         143.3496  135.7187  156.5059 N.pl3   1  UNL1       -0.3040
     24 C         144.1887  136.3999  155.4658 C.3     1  UNL1        0.1081
     25 C         144.3325  137.8929  155.4781 C.3     1  UNL1        0.0939
     26 C         143.2058  134.2256  156.4937 C.ar    1  UNL1        0.0594
     27 C         144.1633  133.3735  157.2728 C.ar    1  UNL1        0.0154
     28 C         144.0194  131.8804  157.2606 C.ar    1  UNL1        0.0022
     29 C         142.9181  131.2395  156.4692 C.ar    1  UNL1        0.0123
     30 C         141.9606  132.0917  155.6900 C.ar    1  UNL1        0.0694
     31 CL        140.8592  131.4508  154.8987 Cl      1  UNL1       -0.0813
     32 C         142.1044  133.5847  155.7023 C.ar    1  UNL1        0.0815
     33 CL        141.1469  134.4369  154.9232 Cl      1  UNL1       -0.0801
@<TRIPOS>BOND
     1     5     6    1
     2     6     7   ar
     3     7     8   ar
     4     8     1    1
     5     1     2    2
     6     1     3   am
     7     3    18    1
     8    18    19    1
     9    19    20    1
    10    20    21    1
    11    21    22    1
    12    22    23    1
    13    23    26    1
    14    26    27   ar
    15    27    28   ar
    16    28    29   ar
    17    29    30   ar
    18    30    31    1
    19    30    32   ar
    20    32    33    1
    21    23    24    1
    22    24    25    1
    23     8     9   ar
    24     9    10    1
    25     9    11   ar
    26    11    12    1
    27    12    13   ar
    28    13    14   ar
    29    14    15   ar
    30    15    16   ar
    31    16    17   ar
    32    11     6   ar
    33    17    12   ar
    34    25    20    1
    35    32    26   ar
    36     3     4    1
@<TRIPOS>MOLECULE
*****
 33 36 0 0 0
SMALL
GASTEIGER

@<TRIPOS>ATOM
      1 C         135.0517  140.6470  155.9763 C.2     1  UNL1        0.2648
      2 O         135.8417  139.4410  155.5622 O.2     1  UNL1       -0.2684
      3 N         135.7579  141.9265  156.3139 N.am    1  UNL1       -0.2982
      4 H         135.2394  142.7180  156.5857 H       1  UNL1        0.1498
      5 C         129.9280  141.6701  155.2139 C.3     1  UNL1        0.0722
      6 C         131.2003  141.0437  155.7024 C.ar    1  UNL1        0.1245
      7 N         132.5908  141.4743  155.3402 N.ar    1  UNL1       -0.2264
      8 C         133.5555  140.5734  156.0529 C.ar    1  UNL1        0.1476
      9 C         132.7612  139.5861  156.8556 C.ar    1  UNL1        0.0648
     10 C         133.3237  138.4990  157.7226 C.3     1  UNL1        0.0522
     11 N         131.3057  139.8767  156.6390 N.ar    1  UNL1       -0.2972
     12 C         130.1571  139.1313  157.2514 C.ar    1  UNL1        0.0648
     13 C         129.7546  137.7935  156.7052 C.ar    1  UNL1        0.0175
     14 C         128.6060  137.0481  157.3177 C.ar    1  UNL1        0.0015
     15 C         127.8599  137.6404  158.4763 C.ar    1  UNL1        0.0001
     16 C         128.2624  138.9782  159.0226 C.ar    1  UNL1        0.0015
     17 C         129.4110  139.7236  158.4101 C.ar    1  UNL1        0.0175
     18 C         137.2542  142.0001  156.2374 C.3     1  UNL1        0.1070
     19 C         138.0341  142.6049  157.3670 C.3     1  UNL1        0.0937
     20 N         138.3358  141.7909  158.5904 N.3     1  UNL1       -0.2683
     21 C         139.3586  142.2708  159.5770 C.3     1  UNL1        0.0939
     22 C         139.6602  141.4569  160.8003 C.3     1  UNL1        0.1081
     23 N         138.9390  140.1632  161.0370 N.pl3   1  UNL1       -0.3040
     24 C         137.9162  139.6833  160.0504 C.3     1  UNL1        0.1081
     25 C         137.6146  140.4972  158.8271 C.3     1  UNL1        0.0939
     26 C         139.2407  139.3492  162.2604 C.ar    1  UNL1        0.0594
     27 C         140.2422  138.2347  162.1916 C.ar    1  UNL1        0.0154
     28 C         140.5439  137.4208  163.4150 C.ar    1  UNL1        0.0022
     29 C         139.8440  137.7215  164.7072 C.ar    1  UNL1        0.0123
     30 C         138.8424  138.8361  164.7759 C.ar    1  UNL1        0.0694
     31 CL        138.1426  139.1368  166.0681 Cl      1  UNL1       -0.0813
     32 C         138.5408  139.6499  163.5526 C.ar    1  UNL1        0.0815
     33 CL        137.5392  140.7645  163.6214 Cl      1  UNL1       -0.0801
@<TRIPOS>BOND
     1     5     6    1
     2     6     7   ar
     3     7     8   ar
     4     8     1    1
     5     1     2    2
     6     1     3   am
     7     3    18    1
     8    18    19    1
     9    19    20    1
    10    20    21    1
    11    21    22    1
    12    22    23    1
    13    23    26    1
    14    26    27   ar
    15    27    28   ar
    16    28    29   ar
    17    29    30   ar
    18    30    31    1
    19    30    32   ar
    20    32    33    1
    21    23    24    1
    22    24    25    1
    23     8     9   ar
    24     9    10    1
    25     9    11   ar
    26    11    12    1
    27    12    13   ar
    28    13    14   ar
    29    14    15   ar
    30    15    16   ar
    31    16    17   ar
    32    11     6   ar
    33    17    12   ar
    34    25    20    1
    35    32    26   ar
    36     3     4    1
@<TRIPOS>MOLECULE
*****
 33 36 0 0 0
SMALL
GASTEIGER

@<TRIPOS>ATOM
      1 C         143.6337  139.6267  161.0439 C.2     1  UNL1        0.2648
      2 O         144.3313  138.5630  160.2490 O.2     1  UNL1       -0.2684
      3 N         143.4326  140.9918  160.4559 N.am    1  UNL1       -0.2982
      4 H         142.9747  141.6900  160.9776 H       1  UNL1        0.1498
      5 C         143.5089  138.4223  166.1834 C.3     1  UNL1        0.0722
      6 C         143.0797  138.7716  164.7892 C.ar    1  UNL1        0.1245
      7 N         143.9888  139.0029  163.6187 N.ar    1  UNL1       -0.2264
      8 C         143.1371  139.3252  162.4268 C.ar    1  UNL1        0.1476
      9 C         141.7016  139.2931  162.8606 C.ar    1  UNL1        0.0648
     10 C         140.5106  139.5569  161.9877 C.3     1  UNL1        0.0522
     11 N         141.6661  138.9510  164.3207 N.ar    1  UNL1       -0.2972
     12 C         140.4334  138.8125  165.1641 C.ar    1  UNL1        0.0648
     13 C         140.1225  139.8396  166.2122 C.ar    1  UNL1        0.0175
     14 C         138.8898  139.7011  167.0556 C.ar    1  UNL1        0.0015
     15 C         137.9680  138.5356  166.8510 C.ar    1  UNL1        0.0001
     16 C         138.2789  137.5085  165.8028 C.ar    1  UNL1        0.0015
     17 C         139.5116  137.6470  164.9594 C.ar    1  UNL1        0.0175
     18 C         143.9292  141.2934  159.0729 C.3     1  UNL1        0.1070
     19 C         143.0326  141.0762  157.8901 C.3     1  UNL1        0.0937
     20 N         142.8232  139.6917  157.3519 N.3     1  UNL1       -0.2683
     21 C         141.6877  138.8535  157.8598 C.3     1  UNL1        0.0939
     22 C         141.4783  137.4691  157.3216 C.3     1  UNL1        0.1081
     23 N         142.4044  136.9231  156.2756 N.pl3   1  UNL1       -0.3040
     24 C         143.5399  137.7613  155.7677 C.3     1  UNL1        0.1081
     25 C         143.7493  139.1457  156.3059 C.3     1  UNL1        0.0939
     26 C         142.1950  135.5386  155.7374 C.ar    1  UNL1        0.0594
     27 C         141.4979  135.3421  154.4239 C.ar    1  UNL1        0.0154
     28 C         141.2884  133.9576  153.8857 C.ar    1  UNL1        0.0022
     29 C         141.7761  132.7698  154.6611 C.ar    1  UNL1        0.0123
     30 C         142.4733  132.9664  155.9746 C.ar    1  UNL1        0.0694
     31 CL        142.9610  131.7786  156.7500 Cl      1  UNL1       -0.0813
     32 C         142.6827  134.3508  156.5127 C.ar    1  UNL1        0.0815
     33 CL        143.3798  134.5474  157.8263 Cl      1  UNL1       -0.0801
@<TRIPOS>BOND
     1     5     6    1
     2     6     7   ar
     3     7     8   ar
     4     8     1    1
     5     1     2    2
     6     1     3   am
     7     3    18    1
     8    18    19    1
     9    19    20    1
    10    20    21    1
    11    21    22    1
    12    22    23    1
    13    23    26    1
    14    26    27   ar
    15    27    28   ar
    16    28    29   ar
    17    29    30   ar
    18    30    31    1
    19    30    32   ar
    20    32    33    1
    21    23    24    1
    22    24    25    1
    23     8     9   ar
    24     9    10    1
    25     9    11   ar
    26    11    12    1
    27    12    13   ar
    28    13    14   ar
    29    14    15   ar
    30    15    16   ar
    31    16    17   ar
    32    11     6   ar
    33    17    12   ar
    34    25    20    1
    35    32    26   ar
    36     3     4    1
@<TRIPOS>MOLECULE
*****
 33 36 0 0 0
SMALL
GASTEIGER

@<TRIPOS>ATOM
      1 C         138.7730  142.7918  162.2050 C.2     1  UNL1        0.2648
      2 O         138.1891  144.1654  162.0566 O.2     1  UNL1       -0.2684
      3 N         139.0206  141.9469  160.9906 N.am    1  UNL1       -0.2982
      4 H         139.4039  141.0453  161.0880 H       1  UNL1        0.1498
      5 C         138.8793  139.7691  166.5331 C.3     1  UNL1        0.0722
      6 C         139.1581  140.8736  165.5572 C.ar    1  UNL1        0.1245
      7 N         138.5486  141.0208  164.1945 N.ar    1  UNL1       -0.2264
      8 C         139.1093  142.2629  163.5677 C.ar    1  UNL1        0.1476
      9 C         140.0652  142.8834  164.5430 C.ar    1  UNL1        0.0648
     10 C         140.8527  144.1416  164.3268 C.3     1  UNL1        0.0522
     11 N         140.0954  142.0248  165.7726 N.ar    1  UNL1       -0.2972
     12 C         140.9184  142.2736  167.0017 C.ar    1  UNL1        0.0648
     13 C         142.3975  142.0254  166.9769 C.ar    1  UNL1        0.0175
     14 C         143.2205  142.2742  168.2060 C.ar    1  UNL1        0.0015
     15 C         142.5644  142.7712  169.4600 C.ar    1  UNL1        0.0001
     16 C         141.0852  143.0194  169.4849 C.ar    1  UNL1        0.0015
     17 C         140.2623  142.7706  168.2557 C.ar    1  UNL1        0.0175
     18 C         138.6843  142.4757  159.6277 C.3     1  UNL1        0.1070
     19 C         139.7673  142.6596  158.6063 C.3     1  UNL1        0.0937
     20 N         139.7749  143.8786  157.7322 N.3     1  UNL1       -0.2683
     21 C         140.7891  144.9596  157.9615 C.3     1  UNL1        0.0939
     22 C         140.7966  146.1786  157.0875 C.3     1  UNL1        0.1081
     23 N         139.7898  146.3165  155.9841 N.pl3   1  UNL1       -0.3040
     24 C         138.7756  145.2355  155.7548 C.3     1  UNL1        0.1081
     25 C         138.7681  144.0165  156.6289 C.3     1  UNL1        0.0939
     26 C         139.7973  147.5356  155.1100 C.ar    1  UNL1        0.0594
     27 C         140.4542  147.4881  153.7624 C.ar    1  UNL1        0.0154
     28 C         140.4618  148.7072  152.8883 C.ar    1  UNL1        0.0022
     29 C         139.8123  149.9736  153.3619 C.ar    1  UNL1        0.0123
     30 C         139.1553  150.0210  154.7096 C.ar    1  UNL1        0.0694
     31 CL        138.5058  151.2875  155.1832 Cl      1  UNL1       -0.0813
     32 C         139.1478  148.8020  155.5836 C.ar    1  UNL1        0.0815
     33 CL        138.4908  148.8494  156.9313 Cl      1  UNL1       -0.0801
@<TRIPOS>BOND
     1     5     6    1
     2     6     7   ar
     3     7     8   ar
     4     8     1    1
     5     1     2    2
     6     1     3   am
     7     3    18    1
     8    18    19    1
     9    19    20    1
    10    20    21    1
    11    21    22    1
    12    22    23    1
    13    23    26    1
    14    26    27   ar
    15    27    28   ar
    16    28    29   ar
    17    29    30   ar
    18    30    31    1
    19    30    32   ar
    20    32    33    1
    21    23    24    1
    22    24    25    1
    23     8     9   ar
    24     9    10    1
    25     9    11   ar
    26    11    12    1
    27    12    13   ar
    28    13    14   ar
    29    14    15   ar
    30    15    16   ar
    31    16    17   ar
    32    11     6   ar
    33    17    12   ar
    34    25    20    1
    35    32    26   ar
    36     3     4    1
@<TRIPOS>MOLECULE
*****
 33 36 0 0 0
SMALL
GASTEIGER

@<TRIPOS>ATOM
      1 C         134.9523  140.3908  155.8985 C.2     1  UNL1        0.2648
      2 O         135.6570  139.2037  155.3117 O.2     1  UNL1       -0.2684
      3 N         135.7411  141.5851  156.3471 N.am    1  UNL1       -0.2982
      4 H         135.2785  142.3641  156.7322 H       1  UNL1        0.1498
      5 C         129.8525  141.6466  155.3542 C.3     1  UNL1        0.0722
      6 C         131.1146  140.9608  155.7864 C.ar    1  UNL1        0.1245
      7 N         132.5068  141.3313  155.3691 N.ar    1  UNL1       -0.2264
      8 C         133.4587  140.3835  156.0366 C.ar    1  UNL1        0.1476
      9 C         132.6547  139.4271  156.8666 C.ar    1  UNL1        0.0648
     10 C         133.2031  138.3100  157.7041 C.3     1  UNL1        0.0522
     11 N         131.2060  139.7838  156.7120 N.ar    1  UNL1       -0.2972
     12 C         130.0513  139.0861  157.3678 C.ar    1  UNL1        0.0648
     13 C         129.3455  139.7291  158.5247 C.ar    1  UNL1        0.0175
     14 C         128.1909  139.0314  159.1805 C.ar    1  UNL1        0.0015
     15 C         127.7420  137.6908  158.6793 C.ar    1  UNL1        0.0001
     16 C         128.4477  137.0478  157.5224 C.ar    1  UNL1        0.0015
     17 C         129.6024  137.7455  156.8666 C.ar    1  UNL1        0.0175
     18 C         137.2348  141.5924  156.2090 C.3     1  UNL1        0.1070
     19 C         138.0818  140.8279  157.1827 C.3     1  UNL1        0.0937
     20 N         138.2912  141.3564  158.5708 N.3     1  UNL1       -0.2683
     21 C         137.8971  140.5266  159.7566 C.3     1  UNL1        0.0939
     22 C         138.1066  141.0551  161.1447 C.3     1  UNL1        0.1081
     23 N         138.7101  142.4134  161.3470 N.pl3   1  UNL1       -0.3040
     24 C         139.1042  143.2431  160.1612 C.3     1  UNL1        0.1081
     25 C         138.8947  142.7146  158.7731 C.3     1  UNL1        0.0939
     26 C         138.9196  142.9419  162.7351 C.ar    1  UNL1        0.0594
     27 C         137.8614  143.7834  163.3848 C.ar    1  UNL1        0.0154
     28 C         138.0709  144.3119  164.7730 C.ar    1  UNL1        0.0022
     29 C         139.3385  143.9988  165.5114 C.ar    1  UNL1        0.0123
     30 C         140.3966  143.1572  164.8616 C.ar    1  UNL1        0.0694
     31 CL        141.6642  142.8442  165.5999 Cl      1  UNL1       -0.0813
     32 C         140.1872  142.6288  163.4735 C.ar    1  UNL1        0.0815
     33 CL        141.2453  141.7872  162.8237 Cl      1  UNL1       -0.0801
@<TRIPOS>BOND
     1     5     6    1
     2     6     7   ar
     3     7     8   ar
     4     8     1    1
     5     1     2    2
     6     1     3   am
     7     3    18    1
     8    18    19    1
     9    19    20    1
    10    20    21    1
    11    21    22    1
    12    22    23    1
    13    23    26    1
    14    26    27   ar
    15    27    28   ar
    16    28    29   ar
    17    29    30   ar
    18    30    31    1
    19    30    32   ar
    20    32    33    1
    21    23    24    1
    22    24    25    1
    23     8     9   ar
    24     9    10    1
    25     9    11   ar
    26    11    12    1
    27    12    13   ar
    28    13    14   ar
    29    14    15   ar
    30    15    16   ar
    31    16    17   ar
    32    11     6   ar
    33    17    12   ar
    34    25    20    1
    35    32    26   ar
    36     3     4    1
@<TRIPOS>MOLECULE
*****
 33 36 0 0 0
SMALL
GASTEIGER

@<TRIPOS>ATOM
      1 C         143.5695  139.9290  160.7050 C.2     1  UNL1        0.2648
      2 O         144.3954  138.6922  160.5098 O.2     1  UNL1       -0.2684
      3 N         143.4792  140.9510  159.6107 N.am    1  UNL1       -0.2982
      4 H         142.9371  141.7627  159.7388 H       1  UNL1        0.1498
      5 C         139.6888  140.6365  164.2149 C.3     1  UNL1        0.0722
      6 C         141.0501  140.4691  163.6078 C.ar    1  UNL1        0.1245
      7 N         141.3469  140.2613  162.1522 N.ar    1  UNL1       -0.2264
      8 C         142.8339  140.1440  161.9944 C.ar    1  UNL1        0.1476
      9 C         143.4563  140.2792  163.3525 C.ar    1  UNL1        0.0648
     10 C         144.9234  140.2233  163.6596 C.3     1  UNL1        0.0522
     11 N         142.3539  140.4802  164.3496 N.ar    1  UNL1       -0.2972
     12 C         142.5251  140.6606  165.8289 C.ar    1  UNL1        0.0648
     13 C         142.4377  139.4753  166.7440 C.ar    1  UNL1        0.0175
     14 C         142.6089  139.6557  168.2233 C.ar    1  UNL1        0.0015
     15 C         142.8675  141.0213  168.7874 C.ar    1  UNL1        0.0001
     16 C         142.9548  142.2067  167.8722 C.ar    1  UNL1        0.0015
     17 C         142.7836  142.0262  166.3930 C.ar    1  UNL1        0.0175
     18 C         144.2148  140.7361  158.3212 C.3     1  UNL1        0.1070
     19 C         143.4583  140.3744  157.0775 C.3     1  UNL1        0.0937
     20 N         143.1803  138.9347  156.7607 N.3     1  UNL1       -0.2683
     21 C         142.0129  138.2390  157.3955 C.3     1  UNL1        0.0939
     22 C         141.7349  136.7994  157.0787 C.3     1  UNL1        0.1081
     23 N         142.6244  136.0556  156.1272 N.pl3   1  UNL1       -0.3040
     24 C         143.7919  136.7514  155.4923 C.3     1  UNL1        0.1081
     25 C         144.0698  138.1909  155.8091 C.3     1  UNL1        0.0939
     26 C         142.3465  134.6160  155.8104 C.ar    1  UNL1        0.0594
     27 C         141.4894  134.2593  154.6322 C.ar    1  UNL1        0.0154
     28 C         141.2114  132.8196  154.3155 C.ar    1  UNL1        0.0022
     29 C         141.7905  131.7368  155.1769 C.ar    1  UNL1        0.0123
     30 C         142.6477  132.0936  156.3551 C.ar    1  UNL1        0.0694
     31 CL        143.2268  131.0108  157.2165 Cl      1  UNL1       -0.0813
     32 C         142.9256  133.5332  156.6718 C.ar    1  UNL1        0.0815
     33 CL        143.7827  133.8900  157.8500 Cl      1  UNL1       -0.0801
@<TRIPOS>BOND
     1     5     6    1
     2     6     7   ar
     3     7     8   ar
     4     8     1    1
     5     1     2    2
     6     1     3   am
     7     3    18    1
     8    18    19    1
     9    19    20    1
    10    20    21    1
    11    21    22    1
    12    22    23    1
    13    23    26    1
    14    26    27   ar
    15    27    28   ar
    16    28    29   ar
    17    29    30   ar
    18    30    31    1
    19    30    32   ar
    20    32    33    1
    21    23    24    1
    22    24    25    1
    23     8     9   ar
    24     9    10    1
    25     9    11   ar
    26    11    12    1
    27    12    13   ar
    28    13    14   ar
    29    14    15   ar
    30    15    16   ar
    31    16    17   ar
    32    11     6   ar
    33    17    12   ar
    34    25    20    1
    35    32    26   ar
    36     3     4    1
@<TRIPOS>MOLECULE
*****
 33 36 0 0 0
SMALL
GASTEIGER

@<TRIPOS>ATOM
      1 C         138.7561  140.7522  159.5476 C.2     1  UNL1        0.2648
      2 O         137.6198  140.0770  158.8385 O.2     1  UNL1       -0.2684
      3 N         140.0419  141.0167  158.8219 N.am    1  UNL1       -0.2982
      4 H         140.7877  141.4599  159.2873 H       1  UNL1        0.1498
      5 C         137.6069  143.5475  163.8773 C.3     1  UNL1        0.0722
      6 C         138.0784  142.4479  162.9726 C.ar    1  UNL1        0.1245
      7 N         138.0363  142.4606  161.4733 N.ar    1  UNL1       -0.2264
      8 C         138.6066  141.1630  160.9825 C.ar    1  UNL1        0.1476
      9 C         139.0013  140.3482  162.1785 C.ar    1  UNL1        0.0648
     10 C         139.6147  138.9797  162.1496 C.3     1  UNL1        0.0522
     11 N         138.6748  141.1423  163.4085 N.ar    1  UNL1       -0.2972
     12 C         138.9044  140.7072  164.8255 C.ar    1  UNL1        0.0648
     13 C         138.1056  139.5758  165.4015 C.ar    1  UNL1        0.0175
     14 C         138.3353  139.1407  166.8186 C.ar    1  UNL1        0.0015
     15 C         139.3637  139.8371  167.6596 C.ar    1  UNL1        0.0001
     16 C         140.1625  140.9686  167.0837 C.ar    1  UNL1        0.0015
     17 C         139.9328  141.4036  165.6666 C.ar    1  UNL1        0.0175
     18 C         140.1915  140.6060  157.3869 C.3     1  UNL1        0.1070
     19 C         141.5402  140.2246  156.8527 C.3     1  UNL1        0.0937
     20 N         141.8427  138.7902  156.5347 N.3     1  UNL1       -0.2683
     21 C         140.7318  137.7838  156.4792 C.3     1  UNL1        0.0939
     22 C         141.0344  136.3495  156.1612 C.3     1  UNL1        0.1081
     23 N         142.4479  135.9216  155.8987 N.pl3   1  UNL1       -0.3040
     24 C         143.5588  136.9279  155.9542 C.3     1  UNL1        0.1081
     25 C         143.2562  138.3622  156.2722 C.3     1  UNL1        0.0939
     26 C         142.7504  134.4872  155.5807 C.ar    1  UNL1        0.0594
     27 C         142.4940  133.9544  154.2022 C.ar    1  UNL1        0.0154
     28 C         142.7966  132.5200  153.8842 C.ar    1  UNL1        0.0022
     29 C         143.3555  131.6184  154.9447 C.ar    1  UNL1        0.0123
     30 C         143.6118  132.1513  156.3233 C.ar    1  UNL1        0.0694
     31 CL        144.1707  131.2497  157.3839 Cl      1  UNL1       -0.0813
     32 C         143.3093  133.5856  156.6413 C.ar    1  UNL1        0.0815
     33 CL        143.5657  134.1185  158.0199 Cl      1  UNL1       -0.0801
@<TRIPOS>BOND
     1     5     6    1
     2     6     7   ar
     3     7     8   ar
     4     8     1    1
     5     1     2    2
     6     1     3   am
     7     3    18    1
     8    18    19    1
     9    19    20    1
    10    20    21    1
    11    21    22    1
    12    22    23    1
    13    23    26    1
    14    26    27   ar
    15    27    28   ar
    16    28    29   ar
    17    29    30   ar
    18    30    31    1
    19    30    32   ar
    20    32    33    1
    21    23    24    1
    22    24    25    1
    23     8     9   ar
    24     9    10    1
    25     9    11   ar
    26    11    12    1
    27    12    13   ar
    28    13    14   ar
    29    14    15   ar
    30    15    16   ar
    31    16    17   ar
    32    11     6   ar
    33    17    12   ar
    34    25    20    1
    35    32    26   ar
    36     3     4    1
@<TRIPOS>MOLECULE
*****
 33 36 0 0 0
SMALL
GASTEIGER

@<TRIPOS>ATOM
      1 C         143.1146  136.6435  156.3111 C.2     1  UNL1        0.2648
      2 O         144.3306  137.4856  156.0616 O.2     1  UNL1       -0.2684
      3 N         142.0279  137.1447  157.2155 N.am    1  UNL1       -0.2982
      4 H         141.2298  136.5920  157.3792 H       1  UNL1        0.1498
      5 C         142.0924  132.8584  152.7744 C.3     1  UNL1        0.0722
      6 C         142.5155  133.5604  154.0306 C.ar    1  UNL1        0.1245
      7 N         142.4710  135.0402  154.2714 N.ar    1  UNL1       -0.2264
      8 C         142.9853  135.3002  155.6563 C.ar    1  UNL1        0.1476
      9 C         143.3477  133.9810  156.2714 C.ar    1  UNL1        0.0648
     10 C         143.9030  133.7735  157.6493 C.3     1  UNL1        0.0522
     11 N         143.0574  132.9057  155.2667 N.ar    1  UNL1       -0.2972
     12 C         143.2713  131.4341  155.4635 C.ar    1  UNL1        0.0648
     13 C         144.6577  130.8641  155.4101 C.ar    1  UNL1        0.0175
     14 C         144.8716  129.3925  155.6068 C.ar    1  UNL1        0.0015
     15 C         143.6991  128.4910  155.8571 C.ar    1  UNL1        0.0001
     16 C         142.3127  129.0611  155.9105 C.ar    1  UNL1        0.0015
     17 C         142.0988  130.5327  155.7137 C.ar    1  UNL1        0.0175
     18 C         142.1571  138.4880  157.8703 C.3     1  UNL1        0.1070
     19 C         142.9967  138.6435  159.1036 C.3     1  UNL1        0.0937
     20 N         142.3399  138.8027  160.4428 N.3     1  UNL1       -0.2683
     21 C         141.8135  140.1422  160.8655 C.3     1  UNL1        0.0939
     22 C         141.1568  140.3013  162.2047 C.3     1  UNL1        0.1081
     23 N         141.0266  139.1210  163.1211 N.pl3   1  UNL1       -0.3040
     24 C         141.5530  137.7816  162.6984 C.3     1  UNL1        0.1081
     25 C         142.2097  137.6224  161.3593 C.3     1  UNL1        0.0939
     26 C         140.3699  139.2802  164.4604 C.ar    1  UNL1        0.0594
     27 C         138.8938  139.0551  164.6034 C.ar    1  UNL1        0.0154
     28 C         138.2371  139.2143  165.9426 C.ar    1  UNL1        0.0022
     29 C         139.0565  139.5986  167.1388 C.ar    1  UNL1        0.0123
     30 C         140.5327  139.8237  166.9957 C.ar    1  UNL1        0.0694
     31 CL        141.3521  140.2080  168.1919 Cl      1  UNL1       -0.0813
     32 C         141.1893  139.6645  165.6565 C.ar    1  UNL1        0.0815
     33 CL        142.6655  139.8896  165.5135 Cl      1  UNL1       -0.0801
@<TRIPOS>BOND
     1     5     6    1
     2     6     7   ar
     3     7     8   ar
     4     8     1    1
     5     1     2    2
     6     1     3   am
     7     3    18    1
     8    18    19    1
     9    19    20    1
    10    20    21    1
    11    21    22    1
    12    22    23    1
    13    23    26    1
    14    26    27   ar
    15    27    28   ar
    16    28    29   ar
    17    29    30   ar
    18    30    31    1
    19    30    32   ar
    20    32    33    1
    21    23    24    1
    22    24    25    1
    23     8     9   ar
    24     9    10    1
    25     9    11   ar
    26    11    12    1
    27    12    13   ar
    28    13    14   ar
    29    14    15   ar
    30    15    16   ar
    31    16    17   ar
    32    11     6   ar
    33    17    12   ar
    34    25    20    1
    35    32    26   ar
    36     3     4    1
@<TRIPOS>MOLECULE
*****
 33 36 0 0 0
SMALL
GASTEIGER

@<TRIPOS>ATOM
      1 C         143.1220  136.2556  156.2421 C.2     1  UNL1        0.2648
      2 O         144.3507  137.0906  156.0347 O.2     1  UNL1       -0.2684
      3 N         142.0027  136.7681  157.0991 N.am    1  UNL1       -0.2982
      4 H         141.1963  136.2201  157.2352 H       1  UNL1        0.1498
      5 C         142.1347  132.4398  152.7284 C.3     1  UNL1        0.0722
      6 C         142.5587  133.1541  153.9774 C.ar    1  UNL1        0.1245
      7 N         142.4864  134.6334  154.2149 N.ar    1  UNL1       -0.2264
      8 C         143.0125  134.9080  155.5925 C.ar    1  UNL1        0.1476
      9 C         143.4100  133.5984  156.2065 C.ar    1  UNL1        0.0648
     10 C         143.9866  133.4064  157.5778 C.3     1  UNL1        0.0522
     11 N         143.1295  132.5144  155.2084 N.ar    1  UNL1       -0.2972
     12 C         143.3764  131.0482  155.4063 C.ar    1  UNL1        0.0648
     13 C         144.7698  130.5020  155.3060 C.ar    1  UNL1        0.0175
     14 C         145.0168  129.0358  155.5040 C.ar    1  UNL1        0.0015
     15 C         143.8703  128.1157  155.8023 C.ar    1  UNL1        0.0001
     16 C         142.4768  128.6618  155.9026 C.ar    1  UNL1        0.0015
     17 C         142.2300  130.1281  155.7047 C.ar    1  UNL1        0.0175
     18 C         142.1122  138.1158  157.7487 C.3     1  UNL1        0.1070
     19 C         143.0120  138.3064  158.9336 C.3     1  UNL1        0.0937
     20 N         142.4244  138.5991  160.2823 N.3     1  UNL1       -0.2683
     21 C         143.0024  137.9558  161.5079 C.3     1  UNL1        0.0939
     22 C         142.4147  138.2485  162.8565 C.3     1  UNL1        0.1081
     23 N         141.2491  139.1846  162.9796 N.pl3   1  UNL1       -0.3040
     24 C         140.6711  139.8279  161.7541 C.3     1  UNL1        0.1081
     25 C         141.2588  139.5351  160.4054 C.3     1  UNL1        0.0939
     26 C         140.6615  139.4773  164.3284 C.ar    1  UNL1        0.0594
     27 C         141.2496  140.5601  165.1837 C.ar    1  UNL1        0.0154
     28 C         140.6619  140.8528  166.5325 C.ar    1  UNL1        0.0022
     29 C         139.4862  140.0627  167.0258 C.ar    1  UNL1        0.0123
     30 C         138.8981  138.9798  166.1704 C.ar    1  UNL1        0.0694
     31 CL        137.7224  138.1896  166.6638 Cl      1  UNL1       -0.0813
     32 C         139.4858  138.6871  164.8218 C.ar    1  UNL1        0.0815
     33 CL        138.8977  137.6043  163.9663 Cl      1  UNL1       -0.0801
@<TRIPOS>BOND
     1     5     6    1
     2     6     7   ar
     3     7     8   ar
     4     8     1    1
     5     1     2    2
     6     1     3   am
     7     3    18    1
     8    18    19    1
     9    19    20    1
    10    20    21    1
    11    21    22    1
    12    22    23    1
    13    23    26    1
    14    26    27   ar
    15    27    28   ar
    16    28    29   ar
    17    29    30   ar
    18    30    31    1
    19    30    32   ar
    20    32    33    1
    21    23    24    1
    22    24    25    1
    23     8     9   ar
    24     9    10    1
    25     9    11   ar
    26    11    12    1
    27    12    13   ar
    28    13    14   ar
    29    14    15   ar
    30    15    16   ar
    31    16    17   ar
    32    11     6   ar
    33    17    12   ar
    34    25    20    1
    35    32    26   ar
    36     3     4    1
