@<TRIPOS>MOLECULE
*****
 30 33 0 0 0
SMALL
GASTEIGER

@<TRIPOS>ATOM
      1 C         141.2406  140.9658  162.3222 C.3     1  UNL1        0.1467
      2 C         142.6400  137.6131  157.8901 C.3     1  UNL1        0.0896
      3 N         142.3909  138.3162  159.1915 N.3     1  UNL1       -0.2715
      4 C         142.8880  137.7183  160.4742 C.3     1  UNL1        0.0725
      5 C         142.6390  138.4214  161.7756 C.3     1  UNL1        0.0238
      6 C         141.8928  139.7224  161.7943 C.3     1  UNL1        0.0489
      7 C         141.3957  140.3204  160.5116 C.3     1  UNL1        0.0238
      8 C         141.6447  139.6173  159.2103 C.3     1  UNL1        0.0725
      9 C         142.1634  139.5563  163.2603 C.ar    1  UNL1       -0.0203
     10 C         142.8488  140.6496  164.0251 C.ar    1  UNL1       -0.0033
     11 C         143.1195  140.4835  165.4911 C.ar    1  UNL1        0.0111
     12 C         142.7047  139.2240  166.1923 C.ar    1  UNL1        0.0577
     13 CL        142.9754  139.0578  167.6583 Cl      1  UNL1       -0.0822
     14 C         142.0193  138.1306  165.4276 C.ar    1  UNL1        0.0111
     15 C         141.7487  138.2968  163.9615 C.ar    1  UNL1       -0.0033
     16 O         139.7936  141.2347  162.0322 O.3     1  UNL1       -0.3470
     17 C         138.8856  141.7123  163.1265 C.3     1  UNL1        0.1874
     18 C         139.0204  141.1516  164.5112 C.ar    1  UNL1        0.0883
     19 C         138.4293  139.8124  164.8389 C.ar    1  UNL1        0.0211
     20 C         138.5642  139.2518  166.2236 C.ar    1  UNL1        0.0738
     21 C         139.2901  140.0301  167.2806 C.ar    1  UNL1        0.0186
     22 C         139.8812  141.3692  166.9529 C.ar    1  UNL1        0.0583
     23 N         139.7464  141.9300  165.5682 N.ar    1  UNL1       -0.2515
     24 C         137.9731  137.9126  166.5514 C.3     1  UNL1        0.4187
     25 F         137.3820  136.5736  166.8792 F       1  UNL1       -0.1659
     26 F         137.1906  138.5322  167.6713 F       1  UNL1       -0.1659
     27 F         138.7555  137.2932  165.4316 F       1  UNL1       -0.1659
     28 C         140.6071  142.1475  168.0099 C.3     1  UNL1        0.0403
     29 C         140.5878  143.1311  169.1423 C.3     1  UNL1        0.0063
     30 C         141.8834  142.5122  168.7084 C.3     1  UNL1        0.0063
@<TRIPOS>BOND
     1     2     3    1
     2     3     4    1
     3     4     5    1
     4     5     6    1
     5     6     1    1
     6     1    16    1
     7    16    17    1
     8    17    18    1
     9    18    19   ar
    10    19    20   ar
    11    20    24    1
    12    24    25    1
    13    24    26    1
    14    24    27    1
    15    20    21   ar
    16    21    22   ar
    17    22    28    1
    18    28    29    1
    19    29    30    1
    20    22    23   ar
    21     6     9    1
    22     9    10   ar
    23    10    11   ar
    24    11    12   ar
    25    12    13    1
    26    12    14   ar
    27    14    15   ar
    28     6     7    1
    29     7     8    1
    30     8     3    1
    31    23    18   ar
    32    15     9   ar
    33    30    28    1
@<TRIPOS>MOLECULE
*****
 30 33 0 0 0
SMALL
GASTEIGER

@<TRIPOS>ATOM
      1 C         140.3712  137.8072  162.4293 C.3     1  UNL1        0.1467
      2 C         137.9529  140.3605  157.9044 C.3     1  UNL1        0.0896
      3 N         138.4024  139.8041  159.2229 N.3     1  UNL1       -0.2715
      4 C         137.6500  140.1426  160.4756 C.3     1  UNL1        0.0725
      5 C         138.0996  139.5862  161.7940 C.3     1  UNL1        0.0238
      6 C         139.3015  138.6912  161.8598 C.3     1  UNL1        0.0489
      7 C         140.0539  138.3527  160.6071 C.3     1  UNL1        0.0238
      8 C         139.6044  138.9091  159.2887 C.3     1  UNL1        0.0725
      9 C         138.9206  138.7228  163.3103 C.ar    1  UNL1       -0.0203
     10 C         138.9532  137.4618  164.1219 C.ar    1  UNL1       -0.0033
     11 C         138.5723  137.4932  165.5724 C.ar    1  UNL1        0.0111
     12 C         138.1587  138.7858  166.2112 C.ar    1  UNL1        0.0577
     13 CL        137.7778  138.8173  167.6617 Cl      1  UNL1       -0.0822
     14 C         138.1261  140.0469  165.3997 C.ar    1  UNL1        0.0111
     15 C         138.5070  140.0154  163.9492 C.ar    1  UNL1       -0.0033
     16 O         141.8160  138.1162  162.1704 O.3     1  UNL1       -0.3470
     17 C         142.7153  138.5041  163.3067 C.3     1  UNL1        0.1874
     18 C         142.2743  139.5480  164.2893 C.ar    1  UNL1        0.0883
     19 C         142.0573  139.1804  165.7274 C.ar    1  UNL1        0.0211
     20 C         141.6163  140.2244  166.7100 C.ar    1  UNL1        0.0738
     21 C         141.3924  141.6360  166.2547 C.ar    1  UNL1        0.0186
     22 C         141.6094  142.0036  164.8167 C.ar    1  UNL1        0.0583
     23 N         142.0504  140.9597  163.8340 N.ar    1  UNL1       -0.2515
     24 C         141.3993  139.8568  168.1480 C.3     1  UNL1        0.4187
     25 F         141.1823  139.4893  169.5860 F       1  UNL1       -0.1659
     26 F         142.6094  138.9714  168.1042 F       1  UNL1       -0.1659
     27 F         140.1893  140.7422  168.1917 F       1  UNL1       -0.1659
     28 C         141.3855  143.4152  164.3615 C.3     1  UNL1        0.0403
     29 C         140.4502  144.5236  163.9785 C.3     1  UNL1        0.0063
     30 C         141.9326  144.7516  163.9559 C.3     1  UNL1        0.0063
@<TRIPOS>BOND
     1     2     3    1
     2     3     4    1
     3     4     5    1
     4     5     6    1
     5     6     1    1
     6     1    16    1
     7    16    17    1
     8    17    18    1
     9    18    19   ar
    10    19    20   ar
    11    20    24    1
    12    24    25    1
    13    24    26    1
    14    24    27    1
    15    20    21   ar
    16    21    22   ar
    17    22    28    1
    18    28    29    1
    19    29    30    1
    20    22    23   ar
    21     6     9    1
    22     9    10   ar
    23    10    11   ar
    24    11    12   ar
    25    12    13    1
    26    12    14   ar
    27    14    15   ar
    28     6     7    1
    29     7     8    1
    30     8     3    1
    31    23    18   ar
    32    15     9   ar
    33    30    28    1
@<TRIPOS>MOLECULE
*****
 30 33 0 0 0
SMALL
GASTEIGER

@<TRIPOS>ATOM
      1 C         141.5841  138.2739  163.2692 C.3     1  UNL1        0.1467
      2 C         139.7982  138.8957  157.8594 C.3     1  UNL1        0.0896
      3 N         140.0221  138.7654  159.3369 N.3     1  UNL1       -0.2715
      4 C         138.8641  138.8772  160.2837 C.3     1  UNL1        0.0725
      5 C         139.0880  138.7470  161.7611 C.3     1  UNL1        0.0238
      6 C         140.4699  138.5050  162.2918 C.3     1  UNL1        0.0489
      7 C         141.6279  138.3932  161.3450 C.3     1  UNL1        0.0238
      8 C         141.4040  138.5234  159.8675 C.3     1  UNL1        0.0725
      9 C         139.6988  138.5365  163.5781 C.ar    1  UNL1       -0.0203
     10 C         138.8819  139.7433  163.9334 C.ar    1  UNL1       -0.0033
     11 C         138.1109  139.7749  165.2196 C.ar    1  UNL1        0.0111
     12 C         138.1567  138.5997  166.1505 C.ar    1  UNL1        0.0577
     13 CL        137.3856  138.6312  167.4368 Cl      1  UNL1       -0.0822
     14 C         138.9736  137.3928  165.7953 C.ar    1  UNL1        0.0111
     15 C         139.7447  137.3613  164.5090 C.ar    1  UNL1       -0.0033
     16 O         142.8510  139.0702  163.1643 O.3     1  UNL1       -0.3470
     17 C         143.3331  139.8704  164.3379 C.3     1  UNL1        0.1874
     18 C         142.3443  140.5247  165.2566 C.ar    1  UNL1        0.0883
     19 C         142.0763  139.9376  166.6108 C.ar    1  UNL1        0.0211
     20 C         141.0875  140.5920  167.5294 C.ar    1  UNL1        0.0738
     21 C         140.3666  141.8332  167.0941 C.ar    1  UNL1        0.0186
     22 C         140.6346  142.4203  165.7400 C.ar    1  UNL1        0.0583
     23 N         141.6234  141.7660  164.8213 N.ar    1  UNL1       -0.2515
     24 C         140.8194  140.0049  168.8836 C.3     1  UNL1        0.4187
     25 F         140.5515  139.4180  170.2377 F       1  UNL1       -0.1659
     26 F         142.1779  139.3688  168.8767 F       1  UNL1       -0.1659
     27 F         139.4610  140.6411  168.8905 F       1  UNL1       -0.1659
     28 C         139.9137  143.6616  165.3047 C.3     1  UNL1        0.0403
     29 C         139.7086  144.7620  164.3061 C.3     1  UNL1        0.0063
     30 C         138.8703  144.7111  165.5490 C.3     1  UNL1        0.0063
@<TRIPOS>BOND
     1     2     3    1
     2     3     4    1
     3     4     5    1
     4     5     6    1
     5     6     1    1
     6     1    16    1
     7    16    17    1
     8    17    18    1
     9    18    19   ar
    10    19    20   ar
    11    20    24    1
    12    24    25    1
    13    24    26    1
    14    24    27    1
    15    20    21   ar
    16    21    22   ar
    17    22    28    1
    18    28    29    1
    19    29    30    1
    20    22    23   ar
    21     6     9    1
    22     9    10   ar
    23    10    11   ar
    24    11    12   ar
    25    12    13    1
    26    12    14   ar
    27    14    15   ar
    28     6     7    1
    29     7     8    1
    30     8     3    1
    31    23    18   ar
    32    15     9   ar
    33    30    28    1
@<TRIPOS>MOLECULE
*****
 30 33 0 0 0
SMALL
GASTEIGER

@<TRIPOS>ATOM
      1 C         142.3996  139.5522  165.8377 C.3     1  UNL1        0.1467
      2 C         140.9099  140.8734  171.2115 C.3     1  UNL1        0.0896
      3 N         141.0510  140.5025  169.7649 N.3     1  UNL1       -0.2715
      4 C         139.8304  140.2149  168.9419 C.3     1  UNL1        0.0725
      5 C         139.9715  139.8440  167.4953 C.3     1  UNL1        0.0238
      6 C         141.3331  139.7606  166.8718 C.3     1  UNL1        0.0489
      7 C         142.5537  140.0481  167.6948 C.3     1  UNL1        0.0238
      8 C         142.4126  140.4191  169.1414 C.3     1  UNL1        0.0725
      9 C         140.4829  139.4007  165.6896 C.ar    1  UNL1       -0.0203
     10 C         139.1431  140.0491  165.5042 C.ar    1  UNL1       -0.0033
     11 C         138.2928  139.6892  164.3221 C.ar    1  UNL1        0.0111
     12 C         138.7824  138.6808  163.3253 C.ar    1  UNL1        0.0577
     13 CL        137.9321  138.3209  162.1431 Cl      1  UNL1       -0.0822
     14 C         140.1222  138.0324  163.5107 C.ar    1  UNL1        0.0111
     15 C         140.9725  138.3923  164.6929 C.ar    1  UNL1       -0.0033
     16 O         143.5061  140.5539  165.6891 O.3     1  UNL1       -0.3470
     17 C         143.4228  141.6117  164.6288 C.3     1  UNL1        0.1874
     18 C         142.0843  142.0710  164.1312 C.ar    1  UNL1        0.0883
     19 C         141.2803  143.0490  164.9358 C.ar    1  UNL1        0.0211
     20 C         139.9419  143.5082  164.4381 C.ar    1  UNL1        0.0738
     21 C         139.4075  142.9897  163.1361 C.ar    1  UNL1        0.0186
     22 C         140.2115  142.0118  162.3315 C.ar    1  UNL1        0.0583
     23 N         141.5499  141.5524  162.8291 N.ar    1  UNL1       -0.2515
     24 C         139.1378  144.4862  165.2427 C.3     1  UNL1        0.4187
     25 F         138.3337  145.4640  166.0472 F       1  UNL1       -0.1659
     26 F         139.6271  143.8471  166.5085 F       1  UNL1       -0.1659
     27 F         138.6485  145.1251  163.9769 F       1  UNL1       -0.1659
     28 C         139.6771  141.4932  161.0294 C.3     1  UNL1        0.0403
     29 C         139.8330  140.6295  159.8129 C.3     1  UNL1        0.0063
     30 C         138.5956  141.4585  159.9906 C.3     1  UNL1        0.0063
@<TRIPOS>BOND
     1     2     3    1
     2     3     4    1
     3     4     5    1
     4     5     6    1
     5     6     1    1
     6     1    16    1
     7    16    17    1
     8    17    18    1
     9    18    19   ar
    10    19    20   ar
    11    20    24    1
    12    24    25    1
    13    24    26    1
    14    24    27    1
    15    20    21   ar
    16    21    22   ar
    17    22    28    1
    18    28    29    1
    19    29    30    1
    20    22    23   ar
    21     6     9    1
    22     9    10   ar
    23    10    11   ar
    24    11    12   ar
    25    12    13    1
    26    12    14   ar
    27    14    15   ar
    28     6     7    1
    29     7     8    1
    30     8     3    1
    31    23    18   ar
    32    15     9   ar
    33    30    28    1
@<TRIPOS>MOLECULE
*****
 30 33 0 0 0
SMALL
GASTEIGER

@<TRIPOS>ATOM
      1 C         142.9768  139.1361  163.3688 C.3     1  UNL1        0.1467
      2 C         142.6538  138.4781  157.6851 C.3     1  UNL1        0.0896
      3 N         142.4864  138.6246  159.1685 N.3     1  UNL1       -0.2715
      4 C         141.1183  138.5542  159.7794 C.3     1  UNL1        0.0725
      5 C         140.9510  138.7006  161.2629 C.3     1  UNL1        0.0238
      6 C         142.1517  138.9174  162.1353 C.3     1  UNL1        0.0489
      7 C         143.5198  138.9878  161.5244 C.3     1  UNL1        0.0238
      8 C         143.6871  138.8414  160.0409 C.3     1  UNL1        0.0725
      9 C         141.0701  138.9229  163.1747 C.ar    1  UNL1       -0.0203
     10 C         139.9257  139.8859  163.0610 C.ar    1  UNL1       -0.0033
     11 C         138.8441  139.8916  164.1003 C.ar    1  UNL1        0.0111
     12 C         138.9070  138.9341  165.2533 C.ar    1  UNL1        0.0577
     13 CL        137.8254  138.9397  166.2926 Cl      1  UNL1       -0.0822
     14 C         140.0514  137.9710  165.3670 C.ar    1  UNL1        0.0111
     15 C         141.1329  137.9655  164.3276 C.ar    1  UNL1       -0.0033
     16 O         143.9731  140.2564  163.4156 O.3     1  UNL1       -0.3470
     17 C         143.9915  141.1954  164.5853 C.3     1  UNL1        0.1874
     18 C         142.7598  141.3747  165.4224 C.ar    1  UNL1        0.0883
     19 C         142.5993  140.5991  166.6963 C.ar    1  UNL1        0.0211
     20 C         141.3675  140.7785  167.5334 C.ar    1  UNL1        0.0738
     21 C         140.2964  141.7334  167.0967 C.ar    1  UNL1        0.0186
     22 C         140.4569  142.5090  165.8228 C.ar    1  UNL1        0.0583
     23 N         141.6886  142.3297  164.9857 N.ar    1  UNL1       -0.2515
     24 C         141.2069  140.0029  168.8073 C.3     1  UNL1        0.4187
     25 F         141.0463  139.2274  170.0811 F       1  UNL1       -0.1659
     26 F         139.7194  139.9934  168.6139 F       1  UNL1       -0.1659
     27 F         142.6944  140.0125  169.0006 F       1  UNL1       -0.1659
     28 C         139.3858  143.4640  165.3861 C.3     1  UNL1        0.0403
     29 C         138.0998  143.7304  164.6613 C.3     1  UNL1        0.0063
     30 C         138.8163  144.8513  165.3544 C.3     1  UNL1        0.0063
@<TRIPOS>BOND
     1     2     3    1
     2     3     4    1
     3     4     5    1
     4     5     6    1
     5     6     1    1
     6     1    16    1
     7    16    17    1
     8    17    18    1
     9    18    19   ar
    10    19    20   ar
    11    20    24    1
    12    24    25    1
    13    24    26    1
    14    24    27    1
    15    20    21   ar
    16    21    22   ar
    17    22    28    1
    18    28    29    1
    19    29    30    1
    20    22    23   ar
    21     6     9    1
    22     9    10   ar
    23    10    11   ar
    24    11    12   ar
    25    12    13    1
    26    12    14   ar
    27    14    15   ar
    28     6     7    1
    29     7     8    1
    30     8     3    1
    31    23    18   ar
    32    15     9   ar
    33    30    28    1
@<TRIPOS>MOLECULE
*****
 30 33 0 0 0
SMALL
GASTEIGER

@<TRIPOS>ATOM
      1 C         141.3715  144.1275  164.0183 C.3     1  UNL1        0.1467
      2 C         140.3506  145.6962  158.6017 C.3     1  UNL1        0.0896
      3 N         140.7556  145.0994  159.9170 N.3     1  UNL1       -0.2715
      4 C         141.6377  143.8866  159.9505 C.3     1  UNL1        0.0725
      5 C         142.0427  143.2899  161.2657 C.3     1  UNL1        0.0238
      6 C         141.5656  143.9059  162.5475 C.3     1  UNL1        0.0489
      7 C         140.6836  145.1187  162.5140 C.3     1  UNL1        0.0238
      8 C         140.2786  145.7154  161.1987 C.3     1  UNL1        0.0725
      9 C         142.3803  142.7700  163.0918 C.ar    1  UNL1       -0.0203
     10 C         143.3385  143.0079  164.2210 C.ar    1  UNL1       -0.0033
     11 C         144.1531  141.8722  164.7653 C.ar    1  UNL1        0.0111
     12 C         144.0095  140.4984  164.1803 C.ar    1  UNL1        0.0577
     13 CL        144.8241  139.3625  164.7246 Cl      1  UNL1       -0.0822
     14 C         143.0513  140.2604  163.0511 C.ar    1  UNL1        0.0111
     15 C         142.2367  141.3963  162.5068 C.ar    1  UNL1       -0.0033
     16 O         139.9927  144.3409  164.5690 O.3     1  UNL1       -0.3470
     17 C         139.5402  143.5740  165.7762 C.3     1  UNL1        0.1874
     18 C         140.2886  142.3486  166.2101 C.ar    1  UNL1        0.0883
     19 C         141.2594  142.4273  167.3509 C.ar    1  UNL1        0.0211
     20 C         142.0077  141.2019  167.7848 C.ar    1  UNL1        0.0738
     21 C         141.7854  139.8977  167.0779 C.ar    1  UNL1        0.0186
     22 C         140.8146  139.8190  165.9370 C.ar    1  UNL1        0.0583
     23 N         140.0662  141.0444  165.5031 N.ar    1  UNL1       -0.2515
     24 C         142.9785  141.2805  168.9256 C.3     1  UNL1        0.4187
     25 F         143.9492  141.3592  170.0664 F       1  UNL1       -0.1659
     26 F         143.4371  142.6246  168.4426 F       1  UNL1       -0.1659
     27 F         142.5198  139.9365  169.4085 F       1  UNL1       -0.1659
     28 C         140.5923  138.5149  165.2301 C.3     1  UNL1        0.0403
     29 C         139.6625  137.4428  164.7439 C.3     1  UNL1        0.0063
     30 C         141.1367  137.3280  164.4919 C.3     1  UNL1        0.0063
@<TRIPOS>BOND
     1     2     3    1
     2     3     4    1
     3     4     5    1
     4     5     6    1
     5     6     1    1
     6     1    16    1
     7    16    17    1
     8    17    18    1
     9    18    19   ar
    10    19    20   ar
    11    20    24    1
    12    24    25    1
    13    24    26    1
    14    24    27    1
    15    20    21   ar
    16    21    22   ar
    17    22    28    1
    18    28    29    1
    19    29    30    1
    20    22    23   ar
    21     6     9    1
    22     9    10   ar
    23    10    11   ar
    24    11    12   ar
    25    12    13    1
    26    12    14   ar
    27    14    15   ar
    28     6     7    1
    29     7     8    1
    30     8     3    1
    31    23    18   ar
    32    15     9   ar
    33    30    28    1
@<TRIPOS>MOLECULE
*****
 30 33 0 0 0
SMALL
GASTEIGER

@<TRIPOS>ATOM
      1 C         144.8489  142.3516  162.2619 C.3     1  UNL1        0.1467
      2 C         143.5814  141.0551  156.8255 C.3     1  UNL1        0.0896
      3 N         143.8104  141.1696  158.3034 N.3     1  UNL1       -0.2715
      4 C         143.3791  140.0611  159.2173 C.3     1  UNL1        0.0725
      5 C         143.6080  140.1756  160.6953 C.3     1  UNL1        0.0238
      6 C         144.2683  141.3986  161.2594 C.3     1  UNL1        0.0489
      7 C         144.6997  142.5071  160.3456 C.3     1  UNL1        0.0238
      8 C         144.4707  142.3926  158.8676 C.3     1  UNL1        0.0725
      9 C         144.0386  140.6210  162.5215 C.ar    1  UNL1       -0.0203
     10 C         142.6651  140.1172  162.8525 C.ar    1  UNL1       -0.0033
     11 C         142.4353  139.3397  164.1144 C.ar    1  UNL1        0.0111
     12 C         143.5791  139.0659  165.0454 C.ar    1  UNL1        0.0577
     13 CL        143.3494  138.2884  166.3074 Cl      1  UNL1       -0.0822
     14 C         144.9527  139.5697  164.7144 C.ar    1  UNL1        0.0111
     15 C         145.1824  140.3472  163.4524 C.ar    1  UNL1       -0.0033
     16 O         144.4746  143.8035  162.2206 O.3     1  UNL1       -0.3470
     17 C         143.9035  144.4658  163.4394 C.3     1  UNL1        0.1874
     18 C         142.8543  143.7658  164.2512 C.ar    1  UNL1        0.0883
     19 C         143.2419  143.0152  165.4907 C.ar    1  UNL1        0.0211
     20 C         142.1926  142.3152  166.3025 C.ar    1  UNL1        0.0738
     21 C         140.7558  142.3657  165.8748 C.ar    1  UNL1        0.0186
     22 C         140.3682  143.1163  164.6352 C.ar    1  UNL1        0.0583
     23 N         141.4174  143.8163  163.8234 N.ar    1  UNL1       -0.2515
     24 C         142.5802  141.5645  167.5421 C.3     1  UNL1        0.4187
     25 F         142.9676  140.8139  168.7815 F       1  UNL1       -0.1659
     26 F         141.4343  140.6204  167.3285 F       1  UNL1       -0.1659
     27 F         143.7260  142.5087  167.7555 F       1  UNL1       -0.1659
     28 C         138.9314  143.1668  164.2075 C.3     1  UNL1        0.0403
     29 C         137.7531  143.9455  163.7022 C.3     1  UNL1        0.0063
     30 C         137.6210  142.4759  163.9721 C.3     1  UNL1        0.0063
@<TRIPOS>BOND
     1     2     3    1
     2     3     4    1
     3     4     5    1
     4     5     6    1
     5     6     1    1
     6     1    16    1
     7    16    17    1
     8    17    18    1
     9    18    19   ar
    10    19    20   ar
    11    20    24    1
    12    24    25    1
    13    24    26    1
    14    24    27    1
    15    20    21   ar
    16    21    22   ar
    17    22    28    1
    18    28    29    1
    19    29    30    1
    20    22    23   ar
    21     6     9    1
    22     9    10   ar
    23    10    11   ar
    24    11    12   ar
    25    12    13    1
    26    12    14   ar
    27    14    15   ar
    28     6     7    1
    29     7     8    1
    30     8     3    1
    31    23    18   ar
    32    15     9   ar
    33    30    28    1
@<TRIPOS>MOLECULE
*****
 30 33 0 0 0
SMALL
GASTEIGER

@<TRIPOS>ATOM
      1 C         142.9348  141.8468  165.0366 C.3     1  UNL1        0.1467
      2 C         142.8022  140.0333  170.4713 C.3     1  UNL1        0.0896
      3 N         142.8504  140.2620  168.9896 N.3     1  UNL1       -0.2715
      4 C         142.9404  139.0940  168.0529 C.3     1  UNL1        0.0725
      5 C         142.9886  139.3228  166.5712 C.3     1  UNL1        0.0238
      6 C         142.9468  140.7196  166.0263 C.3     1  UNL1        0.0489
      7 C         142.8568  141.8877  166.9630 C.3     1  UNL1        0.0238
      8 C         142.8086  141.6589  168.4446 C.3     1  UNL1        0.0725
      9 C         143.0327  139.9429  164.7458 C.ar    1  UNL1       -0.0203
     10 C         142.3019  138.6402  164.6084 C.ar    1  UNL1       -0.0033
     11 C         142.3877  137.8636  163.3280 C.ar    1  UNL1        0.0111
     12 C         143.2043  138.3897  162.1850 C.ar    1  UNL1        0.0577
     13 CL        143.2901  137.6130  160.9046 Cl      1  UNL1       -0.0822
     14 C         143.9351  139.6924  162.3224 C.ar    1  UNL1        0.0111
     15 C         143.8492  140.4691  163.6029 C.ar    1  UNL1       -0.0033
     16 O         141.8629  142.8938  165.1053 O.3     1  UNL1       -0.3470
     17 C         140.6602  142.7954  164.2143 C.3     1  UNL1        0.1874
     18 C         140.0238  141.4615  163.9581 C.ar    1  UNL1        0.0883
     19 C         139.9981  140.8974  162.5684 C.ar    1  UNL1        0.0211
     20 C         139.3617  139.5635  162.3122 C.ar    1  UNL1        0.0738
     21 C         138.7510  138.7937  163.4455 C.ar    1  UNL1        0.0186
     22 C         138.7766  139.3579  164.8352 C.ar    1  UNL1        0.0583
     23 N         139.4130  140.6918  165.0915 N.ar    1  UNL1       -0.2515
     24 C         139.3360  138.9992  160.9225 C.3     1  UNL1        0.4187
     25 F         139.3104  138.4350  159.5330 F       1  UNL1       -0.1659
     26 F         139.5987  137.6292  161.4740 F       1  UNL1       -0.1659
     27 F         139.0734  140.3693  160.3711 F       1  UNL1       -0.1659
     28 C         138.1659  138.5881  165.9685 C.3     1  UNL1        0.0403
     29 C         137.5441  138.5596  167.3333 C.3     1  UNL1        0.0063
     30 C         137.7298  137.2836  166.5668 C.3     1  UNL1        0.0063
@<TRIPOS>BOND
     1     2     3    1
     2     3     4    1
     3     4     5    1
     4     5     6    1
     5     6     1    1
     6     1    16    1
     7    16    17    1
     8    17    18    1
     9    18    19   ar
    10    19    20   ar
    11    20    24    1
    12    24    25    1
    13    24    26    1
    14    24    27    1
    15    20    21   ar
    16    21    22   ar
    17    22    28    1
    18    28    29    1
    19    29    30    1
    20    22    23   ar
    21     6     9    1
    22     9    10   ar
    23    10    11   ar
    24    11    12   ar
    25    12    13    1
    26    12    14   ar
    27    14    15   ar
    28     6     7    1
    29     7     8    1
    30     8     3    1
    31    23    18   ar
    32    15     9   ar
    33    30    28    1
@<TRIPOS>MOLECULE
*****
 30 33 0 0 0
SMALL
GASTEIGER

@<TRIPOS>ATOM
      1 C         141.4317  143.0182  163.0531 C.3     1  UNL1        0.1467
      2 C         144.2549  142.6639  158.0786 C.3     1  UNL1        0.0896
      3 N         143.6600  142.5607  159.4517 N.3     1  UNL1       -0.2715
      4 C         144.1474  141.5087  160.4032 C.3     1  UNL1        0.0725
      5 C         143.5525  141.4055  161.7763 C.3     1  UNL1        0.0238
      6 C         142.4701  142.3545  162.1979 C.3     1  UNL1        0.0489
      7 C         141.9826  143.4066  161.2463 C.3     1  UNL1        0.0238
      8 C         142.5776  143.5097  159.8732 C.3     1  UNL1        0.0725
      9 C         142.5969  141.5329  163.4464 C.ar    1  UNL1       -0.0203
     10 C         143.2062  142.1314  164.6795 C.ar    1  UNL1       -0.0033
     11 C         143.3330  141.3099  165.9280 C.ar    1  UNL1        0.0111
     12 C         142.8506  139.8897  165.9434 C.ar    1  UNL1        0.0577
     13 CL        142.9775  139.0680  167.1920 Cl      1  UNL1       -0.0822
     14 C         142.2414  139.2910  164.7104 C.ar    1  UNL1        0.0111
     15 C         142.1145  140.1126  163.4618 C.ar    1  UNL1       -0.0033
     16 O         139.9849  142.9529  162.6625 O.3     1  UNL1       -0.3470
     17 C         138.9244  142.8875  163.7214 C.3     1  UNL1        0.1874
     18 C         139.1464  142.0640  164.9553 C.ar    1  UNL1        0.0883
     19 C         138.6247  140.6593  165.0234 C.ar    1  UNL1        0.0211
     20 C         138.8467  139.8358  166.2573 C.ar    1  UNL1        0.0738
     21 C         139.5904  140.4170  167.4231 C.ar    1  UNL1        0.0186
     22 C         140.1121  141.8217  167.3550 C.ar    1  UNL1        0.0583
     23 N         139.8901  142.6452  166.1211 N.ar    1  UNL1       -0.2515
     24 C         138.3250  138.4310  166.3255 C.3     1  UNL1        0.4187
     25 F         137.8034  137.0264  166.3937 F       1  UNL1       -0.1659
     26 F         137.5580  138.7763  167.5675 F       1  UNL1       -0.1659
     27 F         139.0921  138.0860  165.0835 F       1  UNL1       -0.1659
     28 C         140.8558  142.4029  168.5208 C.3     1  UNL1        0.0403
     29 C         142.1307  142.5778  169.2918 C.3     1  UNL1        0.0063
     30 C         140.8693  143.2345  169.7691 C.3     1  UNL1        0.0063
@<TRIPOS>BOND
     1     2     3    1
     2     3     4    1
     3     4     5    1
     4     5     6    1
     5     6     1    1
     6     1    16    1
     7    16    17    1
     8    17    18    1
     9    18    19   ar
    10    19    20   ar
    11    20    24    1
    12    24    25    1
    13    24    26    1
    14    24    27    1
    15    20    21   ar
    16    21    22   ar
    17    22    28    1
    18    28    29    1
    19    29    30    1
    20    22    23   ar
    21     6     9    1
    22     9    10   ar
    23    10    11   ar
    24    11    12   ar
    25    12    13    1
    26    12    14   ar
    27    14    15   ar
    28     6     7    1
    29     7     8    1
    30     8     3    1
    31    23    18   ar
    32    15     9   ar
    33    30    28    1
