@<TRIPOS>MOLECULE
*****
 34 38 0 0 0
SMALL
GASTEIGER

@<TRIPOS>ATOM
      1 N         140.0185  137.7430  164.2895 N.3     1  UNL1       -0.2677
      2 C         139.8544  137.6622  162.8007 C.3     1  UNL1        0.0897
      3 C         141.0479  137.8164  161.9052 C.3     1  UNL1        0.0897
      4 N         142.4054  138.0513  162.4985 N.3     1  UNL1       -0.2677
      5 C         142.5695  138.1321  163.9873 C.3     1  UNL1        0.0897
      6 C         141.3761  137.9780  164.8828 C.3     1  UNL1        0.0897
      7 C         138.8251  137.5889  165.1850 C.3     1  UNL1        0.1125
      8 C         138.2156  138.7948  165.8365 C.3     1  UNL1        0.1988
      9 F         137.4825  138.6543  167.1376 F       1  UNL1       -0.2309
     10 C         139.9418  140.9086  167.0825 C.3     1  UNL1        0.0306
     11 C         139.2024  141.1981  165.8099 C.ar    1  UNL1       -0.0235
     12 C         138.3392  140.1412  165.1869 C.ar    1  UNL1        0.0071
     13 C         137.5999  140.4307  163.9144 C.ar    1  UNL1       -0.0017
     14 C         137.7235  141.7771  163.2648 C.ar    1  UNL1        0.0060
     15 C         138.5865  142.8340  163.8877 C.ar    1  UNL1        0.0748
     16 C         139.3260  142.5445  165.1603 C.ar    1  UNL1        0.0234
     17 C         140.0963  143.7746  165.5390 C.3     1  UNL1        0.2352
     18 O         139.8329  144.8244  164.5004 O.3     1  UNL1       -0.4404
     19 C         138.8998  144.2430  163.4799 C.2     1  UNL1        0.3413
     20 O         138.3726  144.9472  162.2649 O.2     1  UNL1       -0.2449
     21 C         143.5988  138.2054  161.6029 C.3     1  UNL1        0.1125
     22 C         144.0143  139.5687  161.1349 C.3     1  UNL1        0.1988
     23 F         144.2548  139.8196  159.6758 F       1  UNL1       -0.2309
     24 C         144.1894  140.6808  162.1261 C.ar    1  UNL1        0.0071
     25 C         145.1729  140.5364  163.2495 C.ar    1  UNL1       -0.0017
     26 C         145.3479  141.6486  164.2406 C.ar    1  UNL1        0.0060
     27 C         144.5395  142.9052  164.1084 C.ar    1  UNL1        0.0748
     28 C         143.5560  143.0495  162.9850 C.ar    1  UNL1        0.0234
     29 C         143.3810  141.9374  161.9939 C.ar    1  UNL1       -0.0235
     30 C         142.3975  142.0817  160.8705 C.3     1  UNL1        0.0306
     31 C         142.9044  144.3948  163.1096 C.3     1  UNL1        0.2352
     32 O         143.4851  145.0819  164.3099 O.3     1  UNL1       -0.4404
     33 C         144.4957  144.1613  164.9272 C.2     1  UNL1        0.3413
     34 O         145.3180  144.4465  166.1488 O.2     1  UNL1       -0.2449
@<TRIPOS>BOND
     1    10    11    1
     2    11    12   ar
     3    12     8    1
     4     8     9    1
     5     8     7    1
     6     7     1    1
     7     1     2    1
     8     2     3    1
     9     3     4    1
    10     4    21    1
    11    21    22    1
    12    22    23    1
    13    22    24    1
    14    24    25   ar
    15    25    26   ar
    16    26    27   ar
    17    27    28   ar
    18    28    29   ar
    19    29    30    1
    20    28    31    1
    21    31    32    1
    22    32    33    1
    23    33    34    2
    24     4     5    1
    25     5     6    1
    26    12    13   ar
    27    13    14   ar
    28    14    15   ar
    29    15    16   ar
    30    16    17    1
    31    17    18    1
    32    18    19    1
    33    19    20    2
    34    16    11   ar
    35     6     1    1
    36    19    15    1
    37    29    24   ar
    38    33    27    1
@<TRIPOS>MOLECULE
*****
 34 38 0 0 0
SMALL
GASTEIGER

@<TRIPOS>ATOM
      1 N         142.3986  138.0430  162.4530 N.3     1  UNL1       -0.2677
      2 C         142.5614  138.0448  163.9441 C.3     1  UNL1        0.0897
      3 C         141.3597  137.8990  164.8299 C.3     1  UNL1        0.0897
      4 N         139.9952  137.7513  164.2246 N.3     1  UNL1       -0.2677
      5 C         139.8324  137.7494  162.7334 C.3     1  UNL1        0.0897
      6 C         141.0341  137.8952  161.8476 C.3     1  UNL1        0.0897
      7 C         143.6002  138.1888  161.5672 C.3     1  UNL1        0.1125
      8 C         144.0310  139.5494  161.1056 C.3     1  UNL1        0.1988
      9 F         144.2951  139.7990  159.6503 F       1  UNL1       -0.2309
     10 C         142.4493  142.0808  160.8046 C.3     1  UNL1        0.0306
     11 C         143.4068  141.9263  161.9489 C.ar    1  UNL1       -0.0235
     12 C         144.1977  140.6606  162.0994 C.ar    1  UNL1        0.0071
     13 C         145.1552  140.5061  163.2436 C.ar    1  UNL1       -0.0017
     14 C         145.3219  141.6172  164.2374 C.ar    1  UNL1        0.0060
     15 C         144.5310  142.8829  164.0869 C.ar    1  UNL1        0.0748
     16 C         143.5735  143.0375  162.9427 C.ar    1  UNL1        0.0234
     17 C         142.9349  144.3903  163.0521 C.3     1  UNL1        0.2352
     18 O         143.4977  145.0718  164.2640 O.3     1  UNL1       -0.4404
     19 C         144.4842  144.1403  164.9036 C.2     1  UNL1        0.3413
     20 O         145.2835  144.4174  166.1422 O.2     1  UNL1       -0.2449
     21 C         138.7935  137.6055  165.1104 C.3     1  UNL1        0.1125
     22 C         138.2120  138.8097  165.7900 C.3     1  UNL1        0.1988
     23 F         137.5069  138.6610  167.1055 F       1  UNL1       -0.2309
     24 C         138.3356  140.1625  165.1540 C.ar    1  UNL1        0.0071
     25 C         137.5759  140.4734  163.8985 C.ar    1  UNL1       -0.0017
     26 C         137.6996  141.8262  163.2626 C.ar    1  UNL1        0.0060
     27 C         138.5830  142.8682  163.8821 C.ar    1  UNL1        0.0748
     28 C         139.3427  142.5574  165.1376 C.ar    1  UNL1        0.0234
     29 C         139.2190  141.2045  165.7735 C.ar    1  UNL1       -0.0235
     30 C         139.9788  140.8937  167.0290 C.3     1  UNL1        0.0306
     31 C         140.1305  143.7763  165.5165 C.3     1  UNL1        0.2352
     32 O         139.8575  144.8406  164.4951 O.3     1  UNL1       -0.4404
     33 C         138.9012  144.2794  163.4850 C.2     1  UNL1        0.3413
     34 O         138.3583  145.0022  162.2881 O.2     1  UNL1       -0.2449
@<TRIPOS>BOND
     1    10    11    1
     2    11    12   ar
     3    12     8    1
     4     8     9    1
     5     8     7    1
     6     7     1    1
     7     1     2    1
     8     2     3    1
     9     3     4    1
    10     4    21    1
    11    21    22    1
    12    22    23    1
    13    22    24    1
    14    24    25   ar
    15    25    26   ar
    16    26    27   ar
    17    27    28   ar
    18    28    29   ar
    19    29    30    1
    20    28    31    1
    21    31    32    1
    22    32    33    1
    23    33    34    2
    24     4     5    1
    25     5     6    1
    26    12    13   ar
    27    13    14   ar
    28    14    15   ar
    29    15    16   ar
    30    16    17    1
    31    17    18    1
    32    18    19    1
    33    19    20    2
    34    16    11   ar
    35     6     1    1
    36    19    15    1
    37    29    24   ar
    38    33    27    1
@<TRIPOS>MOLECULE
*****
 34 38 0 0 0
SMALL
GASTEIGER

@<TRIPOS>ATOM
      1 N         141.4654  138.1276  164.4299 N.3     1  UNL1       -0.2677
      2 C         141.7930  138.5050  163.0155 C.3     1  UNL1        0.0897
      3 C         140.7028  138.5816  161.9882 C.3     1  UNL1        0.0897
      4 N         139.2851  138.2809  162.3751 N.3     1  UNL1       -0.2677
      5 C         138.9575  137.9036  163.7894 C.3     1  UNL1        0.0897
      6 C         140.0477  137.8269  164.8168 C.3     1  UNL1        0.0897
      7 C         142.5556  138.0509  165.4573 C.3     1  UNL1        0.1125
      8 C         143.1664  139.3097  165.9980 C.3     1  UNL1        0.1988
      9 F         144.3929  139.8850  165.3539 F       1  UNL1       -0.2309
     10 C         141.5806  141.8282  165.6202 C.3     1  UNL1        0.0306
     11 C         141.7579  141.2525  166.9940 C.ar    1  UNL1       -0.0235
     12 C         142.5508  139.9932  167.1829 C.ar    1  UNL1        0.0071
     13 C         142.7281  139.4176  168.5566 C.ar    1  UNL1       -0.0017
     14 C         142.1125  140.1011  169.7414 C.ar    1  UNL1        0.0060
     15 C         141.3196  141.3603  169.5525 C.ar    1  UNL1        0.0748
     16 C         141.1423  141.9360  168.1788 C.ar    1  UNL1        0.0234
     17 C         140.3141  143.1806  168.3011 C.3     1  UNL1        0.2352
     18 O         139.9796  143.3741  169.7505 O.3     1  UNL1       -0.4404
     19 C         140.6010  142.2491  170.5239 C.2     1  UNL1        0.3413
     20 O         140.5183  142.0482  172.0081 O.2     1  UNL1       -0.2449
     21 C         138.1949  138.3576  161.3476 C.3     1  UNL1        0.1125
     22 C         137.5712  139.6802  161.0130 C.3     1  UNL1        0.1988
     23 F         136.6272  139.7920  159.8527 F       1  UNL1       -0.2309
     24 C         137.8916  140.8908  161.8386 C.ar    1  UNL1        0.0071
     25 C         137.3193  141.0307  163.2181 C.ar    1  UNL1       -0.0017
     26 C         137.6398  142.2414  164.0437 C.ar    1  UNL1        0.0060
     27 C         138.5324  143.3121  163.4898 C.ar    1  UNL1        0.0748
     28 C         139.1046  143.1722  162.1103 C.ar    1  UNL1        0.0234
     29 C         138.7842  141.9615  161.2847 C.ar    1  UNL1       -0.0235
     30 C         139.3564  141.8215  159.9053 C.3     1  UNL1        0.0306
     31 C         139.9475  144.3816  161.8333 C.3     1  UNL1        0.2352
     32 O         139.8962  145.2690  163.0416 O.3     1  UNL1       -0.4404
     33 C         139.0216  144.6081  164.0654 C.2     1  UNL1        0.3413
     34 O         138.6938  145.1482  165.4258 O.2     1  UNL1       -0.2449
@<TRIPOS>BOND
     1    10    11    1
     2    11    12   ar
     3    12     8    1
     4     8     9    1
     5     8     7    1
     6     7     1    1
     7     1     2    1
     8     2     3    1
     9     3     4    1
    10     4    21    1
    11    21    22    1
    12    22    23    1
    13    22    24    1
    14    24    25   ar
    15    25    26   ar
    16    26    27   ar
    17    27    28   ar
    18    28    29   ar
    19    29    30    1
    20    28    31    1
    21    31    32    1
    22    32    33    1
    23    33    34    2
    24     4     5    1
    25     5     6    1
    26    12    13   ar
    27    13    14   ar
    28    14    15   ar
    29    15    16   ar
    30    16    17    1
    31    17    18    1
    32    18    19    1
    33    19    20    2
    34    16    11   ar
    35     6     1    1
    36    19    15    1
    37    29    24   ar
    38    33    27    1
@<TRIPOS>MOLECULE
*****
 34 38 0 0 0
SMALL
GASTEIGER

@<TRIPOS>ATOM
      1 N         140.9120  138.0868  164.3796 N.3     1  UNL1       -0.2677
      2 C         141.0437  138.2343  162.8926 C.3     1  UNL1        0.0897
      3 C         142.3013  138.8015  162.3038 C.3     1  UNL1        0.0897
      4 N         143.4271  139.2211  163.2018 N.3     1  UNL1       -0.2677
      5 C         143.2954  139.0736  164.6887 C.3     1  UNL1        0.0897
      6 C         142.0378  138.5064  165.2776 C.3     1  UNL1        0.0897
      7 C         139.6544  137.5196  164.9685 C.3     1  UNL1        0.1125
      8 C         138.6225  138.4354  165.5570 C.3     1  UNL1        0.1988
      9 F         137.7390  137.9535  166.6693 F       1  UNL1       -0.2309
     10 C         139.7663  140.7432  167.0952 C.3     1  UNL1        0.0306
     11 C         139.0459  140.9871  165.8023 C.ar    1  UNL1       -0.0235
     12 C         138.4739  139.8332  165.0331 C.ar    1  UNL1        0.0071
     13 C         137.7536  140.0770  163.7403 C.ar    1  UNL1       -0.0017
     14 C         137.6050  141.4747  163.2165 C.ar    1  UNL1        0.0060
     15 C         138.1769  142.6285  163.9855 C.ar    1  UNL1        0.0748
     16 C         138.8973  142.3848  165.2784 C.ar    1  UNL1        0.0234
     17 C         139.3524  143.7104  165.8127 C.3     1  UNL1        0.2352
     18 O         138.9133  144.7736  164.8499 O.3     1  UNL1       -0.4404
     19 C         138.1868  144.1049  163.7207 C.2     1  UNL1        0.3413
     20 O         137.5772  144.7921  162.5349 O.2     1  UNL1       -0.2449
     21 C         144.6847  139.7883  162.6129 C.3     1  UNL1        0.1125
     22 C         144.9408  141.2651  162.6714 C.3     1  UNL1        0.1988
     23 F         146.2559  141.7787  163.1781 F       1  UNL1       -0.2309
     24 C         143.8818  142.2283  162.2234 C.ar    1  UNL1        0.0071
     25 C         143.2772  142.0960  160.8570 C.ar    1  UNL1       -0.0017
     26 C         142.2182  143.0592  160.4090 C.ar    1  UNL1        0.0060
     27 C         141.7638  144.1547  161.3273 C.ar    1  UNL1        0.0748
     28 C         142.3684  144.2870  162.6937 C.ar    1  UNL1        0.0234
     29 C         143.4274  143.3238  163.1417 C.ar    1  UNL1       -0.0235
     30 C         144.0320  143.4561  164.5080 C.3     1  UNL1        0.0306
     31 C         141.7242  145.4584  163.3741 C.3     1  UNL1        0.2352
     32 O         140.7215  146.0500  162.4282 O.3     1  UNL1       -0.4404
     33 C         140.7459  145.2443  161.1633 C.2     1  UNL1        0.3413
     34 O         139.9009  145.4857  159.9477 O.2     1  UNL1       -0.2449
@<TRIPOS>BOND
     1    10    11    1
     2    11    12   ar
     3    12     8    1
     4     8     9    1
     5     8     7    1
     6     7     1    1
     7     1     2    1
     8     2     3    1
     9     3     4    1
    10     4    21    1
    11    21    22    1
    12    22    23    1
    13    22    24    1
    14    24    25   ar
    15    25    26   ar
    16    26    27   ar
    17    27    28   ar
    18    28    29   ar
    19    29    30    1
    20    28    31    1
    21    31    32    1
    22    32    33    1
    23    33    34    2
    24     4     5    1
    25     5     6    1
    26    12    13   ar
    27    13    14   ar
    28    14    15   ar
    29    15    16   ar
    30    16    17    1
    31    17    18    1
    32    18    19    1
    33    19    20    2
    34    16    11   ar
    35     6     1    1
    36    19    15    1
    37    29    24   ar
    38    33    27    1
@<TRIPOS>MOLECULE
*****
 34 38 0 0 0
SMALL
GASTEIGER

@<TRIPOS>ATOM
      1 N         143.5319  139.1016  163.5944 N.3     1  UNL1       -0.2677
      2 C         143.1815  139.1111  165.0529 C.3     1  UNL1        0.0897
      3 C         141.8635  138.5609  165.5111 C.3     1  UNL1        0.0897
      4 N         140.8958  138.0014  164.5109 N.3     1  UNL1       -0.2677
      5 C         141.2461  137.9919  163.0524 C.3     1  UNL1        0.0897
      6 C         142.5642  138.5421  162.5941 C.3     1  UNL1        0.0897
      7 C         144.8500  139.6518  163.1361 C.3     1  UNL1        0.1125
      8 C         145.0957  141.1312  163.1641 C.3     1  UNL1        0.1988
      9 F         146.3756  141.6683  163.7326 F       1  UNL1       -0.2309
     10 C         144.0958  143.3945  164.8605 C.3     1  UNL1        0.0306
     11 C         143.5614  143.2053  163.4717 C.ar    1  UNL1       -0.0235
     12 C         144.0613  142.0736  162.6234 C.ar    1  UNL1        0.0071
     13 C         143.5270  141.8844  161.2348 C.ar    1  UNL1       -0.0017
     14 C         142.4928  142.8267  160.6942 C.ar    1  UNL1        0.0060
     15 C         141.9928  143.9584  161.5423 C.ar    1  UNL1        0.0748
     16 C         142.5271  144.1477  162.9311 C.ar    1  UNL1        0.0234
     17 C         141.8498  145.3450  163.5292 C.3     1  UNL1        0.2352
     18 O         140.8969  145.8957  162.5100 O.3     1  UNL1       -0.4404
     19 C         140.9853  145.0387  161.2821 C.2     1  UNL1        0.3413
     20 O         140.2034  145.2288  160.0162 O.2     1  UNL1       -0.2449
     21 C         139.5777  137.4512  164.9692 C.3     1  UNL1        0.1125
     22 C         138.5253  138.3752  165.5067 C.3     1  UNL1        0.1988
     23 F         137.5787  137.8973  166.5676 F       1  UNL1       -0.2309
     24 C         138.4196  139.7769  164.9834 C.ar    1  UNL1        0.0071
     25 C         137.7766  140.0343  163.6528 C.ar    1  UNL1       -0.0017
     26 C         137.6710  141.4360  163.1296 C.ar    1  UNL1        0.0060
     27 C         138.2083  142.5804  163.9368 C.ar    1  UNL1        0.0748
     28 C         138.8514  142.3231  165.2673 C.ar    1  UNL1        0.0234
     29 C         138.9570  140.9213  165.7906 C.ar    1  UNL1       -0.0235
     30 C         139.6000  140.6639  167.1211 C.3     1  UNL1        0.0306
     31 C         139.2871  143.6416  165.8343 C.3     1  UNL1        0.2352
     32 O         138.9133  144.7139  164.8542 O.3     1  UNL1       -0.4404
     33 C         138.2467  144.0581  163.6815 C.2     1  UNL1        0.3413
     34 O         137.7121  144.7571  162.4667 O.2     1  UNL1       -0.2449
@<TRIPOS>BOND
     1    10    11    1
     2    11    12   ar
     3    12     8    1
     4     8     9    1
     5     8     7    1
     6     7     1    1
     7     1     2    1
     8     2     3    1
     9     3     4    1
    10     4    21    1
    11    21    22    1
    12    22    23    1
    13    22    24    1
    14    24    25   ar
    15    25    26   ar
    16    26    27   ar
    17    27    28   ar
    18    28    29   ar
    19    29    30    1
    20    28    31    1
    21    31    32    1
    22    32    33    1
    23    33    34    2
    24     4     5    1
    25     5     6    1
    26    12    13   ar
    27    13    14   ar
    28    14    15   ar
    29    15    16   ar
    30    16    17    1
    31    17    18    1
    32    18    19    1
    33    19    20    2
    34    16    11   ar
    35     6     1    1
    36    19    15    1
    37    29    24   ar
    38    33    27    1
@<TRIPOS>MOLECULE
*****
 34 38 0 0 0
SMALL
GASTEIGER

@<TRIPOS>ATOM
      1 N         139.2087  142.7731  161.6504 N.3     1  UNL1       -0.2677
      2 C         138.4184  143.2867  162.8173 C.3     1  UNL1        0.0897
      3 C         138.0635  142.3653  163.9465 C.3     1  UNL1        0.0897
      4 N         138.4990  140.9304  163.9089 N.3     1  UNL1       -0.2677
      5 C         139.2894  140.4168  162.7420 C.3     1  UNL1        0.0897
      6 C         139.6442  141.3381  161.6128 C.3     1  UNL1        0.0897
      7 C         139.5636  143.6943  160.5212 C.3     1  UNL1        0.1125
      8 C         140.8305  144.4955  160.5767 C.3     1  UNL1        0.1988
      9 F         141.1251  145.5078  159.5098 F       1  UNL1       -0.2309
     10 C         142.9721  142.4087  160.3333 C.3     1  UNL1        0.0306
     11 C         142.8737  143.2408  161.5775 C.ar    1  UNL1       -0.0235
     12 C         141.8029  144.2842  161.6992 C.ar    1  UNL1        0.0071
     13 C         141.7045  145.1163  162.9433 C.ar    1  UNL1       -0.0017
     14 C         142.6768  144.9051  164.0658 C.ar    1  UNL1        0.0060
     15 C         143.7476  143.8617  163.9441 C.ar    1  UNL1        0.0748
     16 C         143.8460  143.0296  162.7000 C.ar    1  UNL1        0.0234
     17 C         144.9983  142.0836  162.8650 C.3     1  UNL1        0.2352
     18 O         145.6120  142.3310  164.2111 O.3     1  UNL1       -0.4404
     19 C         144.8390  143.4300  164.8781 C.2     1  UNL1        0.3413
     20 O         145.1099  143.9975  166.2399 O.2     1  UNL1       -0.2449
     21 C         138.1441  140.0091  165.0382 C.3     1  UNL1        0.1125
     22 C         139.2282  139.3221  165.8147 C.3     1  UNL1        0.1988
     23 F         139.7152  137.9695  165.3868 F       1  UNL1       -0.2309
     24 C         139.8251  139.9878  167.0191 C.ar    1  UNL1        0.0071
     25 C         139.1394  139.8860  168.3493 C.ar    1  UNL1       -0.0017
     26 C         139.7364  140.5517  169.5536 C.ar    1  UNL1        0.0060
     27 C         141.0190  141.3192  169.4278 C.ar    1  UNL1        0.0748
     28 C         141.7047  141.4210  168.0975 C.ar    1  UNL1        0.0234
     29 C         141.1077  140.7553  166.8932 C.ar    1  UNL1       -0.0235
     30 C         141.7933  140.8571  165.5630 C.3     1  UNL1        0.0306
     31 C         142.9486  142.2394  168.2787 C.3     1  UNL1        0.2352
     32 O         143.0317  142.6434  169.7209 O.3     1  UNL1       -0.4404
     33 C         141.8392  142.0747  170.4311 C.2     1  UNL1        0.3413
     34 O         141.5224  142.2336  171.8886 O.2     1  UNL1       -0.2449
@<TRIPOS>BOND
     1    10    11    1
     2    11    12   ar
     3    12     8    1
     4     8     9    1
     5     8     7    1
     6     7     1    1
     7     1     2    1
     8     2     3    1
     9     3     4    1
    10     4    21    1
    11    21    22    1
    12    22    23    1
    13    22    24    1
    14    24    25   ar
    15    25    26   ar
    16    26    27   ar
    17    27    28   ar
    18    28    29   ar
    19    29    30    1
    20    28    31    1
    21    31    32    1
    22    32    33    1
    23    33    34    2
    24     4     5    1
    25     5     6    1
    26    12    13   ar
    27    13    14   ar
    28    14    15   ar
    29    15    16   ar
    30    16    17    1
    31    17    18    1
    32    18    19    1
    33    19    20    2
    34    16    11   ar
    35     6     1    1
    36    19    15    1
    37    29    24   ar
    38    33    27    1
@<TRIPOS>MOLECULE
*****
 34 38 0 0 0
SMALL
GASTEIGER

@<TRIPOS>ATOM
      1 N         143.9006  140.3464  164.4096 N.3     1  UNL1       -0.2677
      2 C         143.1880  140.1812  165.7192 C.3     1  UNL1        0.0897
      3 C         142.0987  139.1593  165.8565 C.3     1  UNL1        0.0897
      4 N         141.7219  138.3024  164.6844 N.3     1  UNL1       -0.2677
      5 C         142.4344  138.4676  163.3748 C.3     1  UNL1        0.0897
      6 C         143.5238  139.4895  163.2374 C.3     1  UNL1        0.0897
      7 C         144.9899  141.3683  164.2721 C.3     1  UNL1        0.1125
      8 C         144.6798  142.8244  164.4557 C.3     1  UNL1        0.1988
      9 F         145.4516  143.6355  165.4539 F       1  UNL1       -0.2309
     10 C         144.6915  142.5583  161.4675 C.3     1  UNL1        0.0306
     11 C         143.6037  143.3363  162.1469 C.ar    1  UNL1       -0.0235
     12 C         143.5978  143.4693  163.6410 C.ar    1  UNL1        0.0071
     13 C         142.5102  144.2472  164.3204 C.ar    1  UNL1       -0.0017
     14 C         141.4283  144.8921  163.5058 C.ar    1  UNL1        0.0060
     15 C         141.4341  144.7591  162.0118 C.ar    1  UNL1        0.0748
     16 C         142.5219  143.9812  161.3323 C.ar    1  UNL1        0.0234
     17 C         142.2672  144.0219  159.8546 C.3     1  UNL1        0.2352
     18 O         141.0220  144.8250  159.6209 O.3     1  UNL1       -0.4404
     19 C         140.5071  145.2806  160.9540 C.2     1  UNL1        0.3413
     20 O         139.2807  146.1118  161.1883 O.2     1  UNL1       -0.2449
     21 C         140.6326  137.2805  164.8219 C.3     1  UNL1        0.1125
     22 C         139.1963  137.7128  164.8392 C.3     1  UNL1        0.1988
     23 F         138.1362  136.7732  165.3324 F       1  UNL1       -0.2309
     24 C         138.8202  139.0847  164.3634 C.ar    1  UNL1        0.0071
     25 C         138.6019  140.1888  165.3550 C.ar    1  UNL1       -0.0017
     26 C         138.2258  141.5607  164.8791 C.ar    1  UNL1        0.0060
     27 C         138.0681  141.8284  163.4116 C.ar    1  UNL1        0.0748
     28 C         138.2864  140.7243  162.4200 C.ar    1  UNL1        0.0234
     29 C         138.6625  139.3524  162.8959 C.ar    1  UNL1       -0.0235
     30 C         138.8809  138.2483  161.9044 C.3     1  UNL1        0.0306
     31 C         138.0608  141.2834  161.0466 C.3     1  UNL1        0.2352
     32 O         137.7030  142.7332  161.1893 O.3     1  UNL1       -0.4404
     33 C         137.7075  143.0700  162.6509 C.2     1  UNL1        0.3413
     34 O         137.4046  144.4126  163.2472 O.2     1  UNL1       -0.2449
@<TRIPOS>BOND
     1    10    11    1
     2    11    12   ar
     3    12     8    1
     4     8     9    1
     5     8     7    1
     6     7     1    1
     7     1     2    1
     8     2     3    1
     9     3     4    1
    10     4    21    1
    11    21    22    1
    12    22    23    1
    13    22    24    1
    14    24    25   ar
    15    25    26   ar
    16    26    27   ar
    17    27    28   ar
    18    28    29   ar
    19    29    30    1
    20    28    31    1
    21    31    32    1
    22    32    33    1
    23    33    34    2
    24     4     5    1
    25     5     6    1
    26    12    13   ar
    27    13    14   ar
    28    14    15   ar
    29    15    16   ar
    30    16    17    1
    31    17    18    1
    32    18    19    1
    33    19    20    2
    34    16    11   ar
    35     6     1    1
    36    19    15    1
    37    29    24   ar
    38    33    27    1
@<TRIPOS>MOLECULE
*****
 34 38 0 0 0
SMALL
GASTEIGER

@<TRIPOS>ATOM
      1 N         139.1031  138.2294  162.5063 N.3     1  UNL1       -0.2677
      2 C         140.5090  138.3834  162.0064 C.3     1  UNL1        0.0897
      3 C         141.6620  138.2418  162.9553 C.3     1  UNL1        0.0897
      4 N         141.4093  137.9462  164.4040 N.3     1  UNL1       -0.2677
      5 C         140.0035  137.7922  164.9039 C.3     1  UNL1        0.0897
      6 C         138.8503  137.9337  163.9551 C.3     1  UNL1        0.0897
      7 C         137.9500  138.3709  161.5575 C.3     1  UNL1        0.1125
      8 C         137.5514  139.7283  161.0588 C.3     1  UNL1        0.1988
      9 F         136.8679  139.8685  159.7310 F       1  UNL1       -0.2309
     10 C         139.0667  142.0299  159.8727 C.3     1  UNL1        0.0306
     11 C         138.5941  142.0963  161.2948 C.ar    1  UNL1       -0.0235
     12 C         137.8365  140.9455  161.8879 C.ar    1  UNL1        0.0071
     13 C         137.3639  141.0118  163.3099 C.ar    1  UNL1       -0.0017
     14 C         137.6489  142.2289  164.1390 C.ar    1  UNL1        0.0060
     15 C         138.4065  143.3797  163.5460 C.ar    1  UNL1        0.0748
     16 C         138.8791  143.3134  162.1239 C.ar    1  UNL1        0.0234
     17 C         139.5977  144.5931  161.8140 C.3     1  UNL1        0.2352
     18 O         139.5691  145.4503  163.0446 O.3     1  UNL1       -0.4404
     19 C         138.8330  144.7004  164.1150 C.2     1  UNL1        0.3413
     20 O         138.5695  145.1860  165.5096 O.2     1  UNL1       -0.2449
     21 C         142.5624  137.8046  165.3528 C.3     1  UNL1        0.1125
     22 C         142.9785  138.9659  166.2063 C.3     1  UNL1        0.1988
     23 F         143.4008  138.7388  167.6275 F       1  UNL1       -0.2309
     24 C         142.9722  140.3542  165.6384 C.ar    1  UNL1        0.0071
     25 C         141.9339  141.3415  166.0825 C.ar    1  UNL1       -0.0017
     26 C         141.9277  142.7299  165.5146 C.ar    1  UNL1        0.0060
     27 C         142.9598  143.1309  164.5026 C.ar    1  UNL1        0.0748
     28 C         143.9981  142.1436  164.0586 C.ar    1  UNL1        0.0234
     29 C         144.0043  140.7553  164.6265 C.ar    1  UNL1       -0.0235
     30 C         145.0426  139.7680  164.1825 C.3     1  UNL1        0.0306
     31 C         144.8822  142.8210  163.0540 C.3     1  UNL1        0.2352
     32 O         144.3903  144.2271  162.8771 O.3     1  UNL1       -0.4404
     33 C         143.2022  144.4186  163.7724 C.2     1  UNL1        0.3413
     34 O         142.3978  145.6768  163.9128 O.2     1  UNL1       -0.2449
@<TRIPOS>BOND
     1    10    11    1
     2    11    12   ar
     3    12     8    1
     4     8     9    1
     5     8     7    1
     6     7     1    1
     7     1     2    1
     8     2     3    1
     9     3     4    1
    10     4    21    1
    11    21    22    1
    12    22    23    1
    13    22    24    1
    14    24    25   ar
    15    25    26   ar
    16    26    27   ar
    17    27    28   ar
    18    28    29   ar
    19    29    30    1
    20    28    31    1
    21    31    32    1
    22    32    33    1
    23    33    34    2
    24     4     5    1
    25     5     6    1
    26    12    13   ar
    27    13    14   ar
    28    14    15   ar
    29    15    16   ar
    30    16    17    1
    31    17    18    1
    32    18    19    1
    33    19    20    2
    34    16    11   ar
    35     6     1    1
    36    19    15    1
    37    29    24   ar
    38    33    27    1
@<TRIPOS>MOLECULE
*****
 34 38 0 0 0
SMALL
GASTEIGER

@<TRIPOS>ATOM
      1 N         137.7507  142.8924  163.3003 N.3     1  UNL1       -0.2677
      2 C         137.9610  142.7628  161.8208 C.3     1  UNL1        0.0897
      3 C         138.0223  141.4041  161.1882 C.3     1  UNL1        0.0897
      4 N         137.8733  140.1751  162.0350 N.3     1  UNL1       -0.2677
      5 C         137.6630  140.3046  163.5145 C.3     1  UNL1        0.0897
      6 C         137.6017  141.6633  164.1472 C.3     1  UNL1        0.0897
      7 C         137.6894  144.2510  163.9330 C.3     1  UNL1        0.1125
      8 C         138.7480  144.6725  164.9085 C.3     1  UNL1        0.1988
      9 F         138.3859  145.5319  166.0834 F       1  UNL1       -0.2309
     10 C         140.3292  145.7224  162.5851 C.3     1  UNL1        0.0306
     11 C         140.9594  144.7596  163.5474 C.ar    1  UNL1       -0.0235
     12 C         140.1689  144.2346  164.7091 C.ar    1  UNL1        0.0071
     13 C         140.7990  143.2719  165.6713 C.ar    1  UNL1       -0.0017
     14 C         142.2197  142.8340  165.4720 C.ar    1  UNL1        0.0060
     15 C         143.0103  143.3589  164.3103 C.ar    1  UNL1        0.0748
     16 C         142.3802  144.3217  163.3480 C.ar    1  UNL1        0.0234
     17 C         143.3996  144.6670  162.3033 C.3     1  UNL1        0.2352
     18 O         144.6599  143.9177  162.6200 O.3     1  UNL1       -0.4404
     19 C         144.4193  143.1092  163.8604 C.2     1  UNL1        0.3413
     20 O         145.4131  142.2091  164.5327 O.2     1  UNL1       -0.2449
     21 C         137.9347  138.8164  161.4023 C.3     1  UNL1        0.1125
     22 C         139.2611  138.1536  161.1759 C.3     1  UNL1        0.1988
     23 F         139.5405  137.4596  159.8758 F       1  UNL1       -0.2309
     24 C         140.3080  138.1847  162.2497 C.ar    1  UNL1        0.0071
     25 C         140.0363  137.5491  163.5809 C.ar    1  UNL1       -0.0017
     26 C         141.0833  137.5803  164.6545 C.ar    1  UNL1        0.0060
     27 C         142.4021  138.2471  164.3970 C.ar    1  UNL1        0.0748
     28 C         142.6738  138.8827  163.0657 C.ar    1  UNL1        0.0234
     29 C         141.6268  138.8515  161.9921 C.ar    1  UNL1       -0.0235
     30 C         141.8985  139.4871  160.6609 C.3     1  UNL1        0.0306
     31 C         144.0567  139.4623  163.1025 C.3     1  UNL1        0.2352
     32 O         144.6398  139.1850  164.4566 O.3     1  UNL1       -0.4404
     33 C         143.6171  138.4339  165.2566 C.2     1  UNL1        0.3413
     34 O         143.7808  137.9540  166.6682 O.2     1  UNL1       -0.2449
@<TRIPOS>BOND
     1    10    11    1
     2    11    12   ar
     3    12     8    1
     4     8     9    1
     5     8     7    1
     6     7     1    1
     7     1     2    1
     8     2     3    1
     9     3     4    1
    10     4    21    1
    11    21    22    1
    12    22    23    1
    13    22    24    1
    14    24    25   ar
    15    25    26   ar
    16    26    27   ar
    17    27    28   ar
    18    28    29   ar
    19    29    30    1
    20    28    31    1
    21    31    32    1
    22    32    33    1
    23    33    34    2
    24     4     5    1
    25     5     6    1
    26    12    13   ar
    27    13    14   ar
    28    14    15   ar
    29    15    16   ar
    30    16    17    1
    31    17    18    1
    32    18    19    1
    33    19    20    2
    34    16    11   ar
    35     6     1    1
    36    19    15    1
    37    29    24   ar
    38    33    27    1
