@<TRIPOS>MOLECULE
*****
 29 33 0 0 0
SMALL
GASTEIGER

@<TRIPOS>ATOM
      1 C         142.6536  137.8685  158.2675 C.ar    1  UNL1        0.1233
      2 C         142.6235  136.5600  157.5347 C.ar    1  UNL1        0.1179
      3 N         143.4914  136.6900  156.3182 N.ar    1  UNL1       -0.2257
      4 N         144.0578  138.0788  156.2991 N.ar    1  UNL1       -0.0635
      5 N         143.5401  138.8071  157.5039 N.ar    1  UNL1       -0.1287
      6 C         141.8662  138.2706  162.1364 C.ar    1  UNL1        0.1547
      7 C         142.5947  137.9561  160.8634 C.ar    1  UNL1        0.0400
      8 C         141.9252  138.1831  159.5405 C.ar    1  UNL1        0.0241
      9 C         140.5273  138.7247  159.4905 C.ar    1  UNL1        0.0033
     10 C         139.7988  139.0393  160.7634 C.ar    1  UNL1        0.0207
     11 C         140.4684  138.8122  162.0864 C.ar    1  UNL1        0.0994
     12 N         139.7399  139.1268  163.3593 N.ar    1  UNL1       -0.2839
     13 C         139.4562  140.4981  163.8970 C.ar    1  UNL1        0.1826
     14 N         138.7082  140.3441  165.1881 N.ar    1  UNL1       -0.2280
     15 C         138.5296  138.8777  165.4483 C.ar    1  UNL1        0.0786
     16 C         137.8354  138.2702  166.6311 C.3     1  UNL1        0.0538
     17 C         139.1673  138.1254  164.3181 C.ar    1  UNL1        0.0963
     18 C         143.3233  139.1475  164.1006 C.3     1  UNL1        0.2525
     19 O         142.5357  138.0436  163.4594 O.3     1  UNL1       -0.4700
     20 C         143.7478  135.6192  155.2995 C.3     1  UNL1        0.1561
     21 C         143.0965  134.2756  155.4435 C.ar    1  UNL1        0.0091
     22 C         141.8247  133.8367  154.7804 C.ar    1  UNL1        0.0331
     23 S         141.5449  132.4249  155.2030 S.2     1  UNL1       -0.0867
     24 C         142.6439  131.9913  156.1273 C.ar    1  UNL1        0.0292
     25 C         142.8952  130.7027  156.8528 C.ar    1  UNL1        0.0065
     26 C         144.1056  130.5580  157.7268 C.ar    1  UNL1        0.0005
     27 C         145.0645  131.7018  157.8755 C.ar    1  UNL1        0.0000
     28 C         144.8132  132.9903  157.1500 C.ar    1  UNL1        0.0003
     29 C         143.6028  133.1351  156.2759 C.ar    1  UNL1        0.0044
@<TRIPOS>BOND
     1    18    19    1
     2    19     6    1
     3     6     7   ar
     4     7     8   ar
     5     8     1    1
     6     1     2   ar
     7     2     3   ar
     8     3    20    1
     9    20    21    1
    10    21    22   ar
    11    22    23   ar
    12    23    24   ar
    13    24    25   ar
    14    25    26   ar
    15    26    27   ar
    16    27    28   ar
    17    28    29   ar
    18     3     4   ar
    19     4     5   ar
    20     8     9   ar
    21     9    10   ar
    22    10    11   ar
    23    11    12    1
    24    12    13   ar
    25    13    14   ar
    26    14    15   ar
    27    15    16    1
    28    15    17   ar
    29    11     6   ar
    30    17    12   ar
    31     5     1   ar
    32    29    21   ar
    33    29    24   ar
@<TRIPOS>MOLECULE
*****
 29 33 0 0 0
SMALL
GASTEIGER

@<TRIPOS>ATOM
      1 C         143.2049  138.6061  159.7120 C.ar    1  UNL1        0.1233
      2 C         142.5043  137.5946  158.8541 C.ar    1  UNL1        0.1179
      3 N         142.8297  137.8970  157.4214 N.ar    1  UNL1       -0.2257
      4 N         143.7314  139.0953  157.3938 N.ar    1  UNL1       -0.0635
      5 N         143.9633  139.5335  158.8094 N.ar    1  UNL1       -0.1287
      6 C         144.1711  139.4931  163.4575 C.ar    1  UNL1        0.1547
      7 C         144.2202  139.4217  161.9601 C.ar    1  UNL1        0.0400
      8 C         143.1558  138.6776  161.2094 C.ar    1  UNL1        0.0241
      9 C         142.0424  138.0050  161.9563 C.ar    1  UNL1        0.0033
     10 C         141.9932  138.0765  163.4538 C.ar    1  UNL1        0.0207
     11 C         143.0576  138.8206  164.2044 C.ar    1  UNL1        0.0994
     12 N         143.0085  138.8921  165.7019 N.ar    1  UNL1       -0.2839
     13 C         143.7537  138.0021  166.6520 C.ar    1  UNL1        0.1826
     14 N         143.4113  138.4261  168.0495 N.ar    1  UNL1       -0.2280
     15 C         142.4545  139.5780  167.9631 C.ar    1  UNL1        0.0786
     16 C         141.8523  140.3129  169.1238 C.3     1  UNL1        0.0538
     17 C         142.2056  139.8660  166.5122 C.ar    1  UNL1        0.0963
     18 C         145.7071  141.5727  163.7144 C.3     1  UNL1        0.2525
     19 O         145.2355  140.2372  164.2082 O.3     1  UNL1       -0.4700
     20 C         142.3393  137.1348  156.2260 C.3     1  UNL1        0.1561
     21 C         142.6827  135.6830  156.0697 C.ar    1  UNL1        0.0091
     22 C         143.3411  134.8166  157.1021 C.ar    1  UNL1        0.0331
     23 S         143.4931  133.4408  156.5240 S.2     1  UNL1       -0.0867
     24 C         142.9287  133.4570  155.1344 C.ar    1  UNL1        0.0292
     25 C         142.8062  132.3889  154.0884 C.ar    1  UNL1        0.0065
     26 C         142.1827  132.7065  152.7616 C.ar    1  UNL1        0.0005
     27 C         141.6818  134.0922  152.4808 C.ar    1  UNL1        0.0000
     28 C         141.8043  135.1603  153.5268 C.ar    1  UNL1        0.0003
     29 C         142.4278  134.8427  154.8536 C.ar    1  UNL1        0.0044
@<TRIPOS>BOND
     1    18    19    1
     2    19     6    1
     3     6     7   ar
     4     7     8   ar
     5     8     1    1
     6     1     2   ar
     7     2     3   ar
     8     3    20    1
     9    20    21    1
    10    21    22   ar
    11    22    23   ar
    12    23    24   ar
    13    24    25   ar
    14    25    26   ar
    15    26    27   ar
    16    27    28   ar
    17    28    29   ar
    18     3     4   ar
    19     4     5   ar
    20     8     9   ar
    21     9    10   ar
    22    10    11   ar
    23    11    12    1
    24    12    13   ar
    25    13    14   ar
    26    14    15   ar
    27    15    16    1
    28    15    17   ar
    29    11     6   ar
    30    17    12   ar
    31     5     1   ar
    32    29    21   ar
    33    29    24   ar
@<TRIPOS>MOLECULE
*****
 29 33 0 0 0
SMALL
GASTEIGER

@<TRIPOS>ATOM
      1 C         142.6831  137.8686  158.4164 C.ar    1  UNL1        0.1233
      2 C         142.6921  136.5591  157.6848 C.ar    1  UNL1        0.1179
      3 N         143.4750  136.7412  156.4183 N.ar    1  UNL1       -0.2257
      4 N         143.9498  138.1631  156.3671 N.ar    1  UNL1       -0.0635
      5 N         143.4603  138.8599  157.6020 N.ar    1  UNL1       -0.1287
      6 C         139.9232  138.8857  161.0806 C.ar    1  UNL1        0.1547
      7 C         140.5920  138.6151  159.7655 C.ar    1  UNL1        0.0400
      8 C         142.0142  138.1393  159.7314 C.ar    1  UNL1        0.0241
      9 C         142.7674  137.9342  161.0122 C.ar    1  UNL1        0.0033
     10 C         142.0985  138.2049  162.3273 C.ar    1  UNL1        0.0207
     11 C         140.6763  138.6806  162.3614 C.ar    1  UNL1        0.0994
     12 N         140.0075  138.9513  163.6764 N.ar    1  UNL1       -0.2839
     13 C         140.1274  140.2096  164.4842 C.ar    1  UNL1        0.1826
     14 N         139.2953  140.0471  165.7216 N.ar    1  UNL1       -0.2280
     15 C         138.6610  138.6885  165.6786 C.ar    1  UNL1        0.0786
     16 C         137.7471  138.1089  166.7172 C.3     1  UNL1        0.0538
     17 C         139.1012  138.0113  164.4147 C.ar    1  UNL1        0.0963
     18 C         138.2017  140.8313  161.1177 C.3     1  UNL1        0.2525
     19 O         138.5010  139.3615  161.1148 O.3     1  UNL1       -0.4700
     20 C         143.7371  135.6863  155.3844 C.3     1  UNL1        0.1561
     21 C         143.0758  134.3447  155.4974 C.ar    1  UNL1        0.0091
     22 C         141.7960  133.9337  154.8317 C.ar    1  UNL1        0.0331
     23 S         141.5076  132.5135  155.2188 S.2     1  UNL1       -0.0867
     24 C         142.6090  132.0468  156.1238 C.ar    1  UNL1        0.0292
     25 C         142.8547  130.7376  156.8133 C.ar    1  UNL1        0.0065
     26 C         144.0696  130.5601  157.6750 C.ar    1  UNL1        0.0005
     27 C         145.0388  131.6919  157.8471 C.ar    1  UNL1        0.0000
     28 C         144.7932  133.0011  157.1576 C.ar    1  UNL1        0.0003
     29 C         143.5783  133.1786  156.2960 C.ar    1  UNL1        0.0044
@<TRIPOS>BOND
     1    18    19    1
     2    19     6    1
     3     6     7   ar
     4     7     8   ar
     5     8     1    1
     6     1     2   ar
     7     2     3   ar
     8     3    20    1
     9    20    21    1
    10    21    22   ar
    11    22    23   ar
    12    23    24   ar
    13    24    25   ar
    14    25    26   ar
    15    26    27   ar
    16    27    28   ar
    17    28    29   ar
    18     3     4   ar
    19     4     5   ar
    20     8     9   ar
    21     9    10   ar
    22    10    11   ar
    23    11    12    1
    24    12    13   ar
    25    13    14   ar
    26    14    15   ar
    27    15    16    1
    28    15    17   ar
    29    11     6   ar
    30    17    12   ar
    31     5     1   ar
    32    29    21   ar
    33    29    24   ar
@<TRIPOS>MOLECULE
*****
 29 33 0 0 0
SMALL
GASTEIGER

@<TRIPOS>ATOM
      1 C         141.9844  137.5913  157.2939 C.ar    1  UNL1        0.1233
      2 C         141.4569  136.5247  156.3806 C.ar    1  UNL1        0.1179
      3 N         142.6108  135.9732  155.5969 N.ar    1  UNL1       -0.2257
      4 N         143.8515  136.6989  156.0258 N.ar    1  UNL1       -0.0635
      5 N         143.4643  137.6989  157.0746 N.ar    1  UNL1       -0.1287
      6 C         139.0078  139.7248  158.8227 C.ar    1  UNL1        0.1547
      7 C         139.8180  138.9092  157.8593 C.ar    1  UNL1        0.0400
      8 C         141.1742  138.4069  158.2574 C.ar    1  UNL1        0.0241
      9 C         141.7201  138.7204  159.6188 C.ar    1  UNL1        0.0033
     10 C         140.9100  139.5361  160.5823 C.ar    1  UNL1        0.0207
     11 C         139.5537  140.0383  160.1842 C.ar    1  UNL1        0.0994
     12 N         138.7435  140.8540  161.1476 N.ar    1  UNL1       -0.2839
     13 C         137.6263  140.3466  162.0104 C.ar    1  UNL1        0.1826
     14 N         137.1006  141.4993  162.8134 N.ar    1  UNL1       -0.2280
     15 C         137.8929  142.7191  162.4470 C.ar    1  UNL1        0.0786
     16 C         137.7032  144.0960  163.0111 C.3     1  UNL1        0.0538
     17 C         138.9083  142.3202  161.4175 C.ar    1  UNL1        0.0963
     18 C         137.5284  141.3975  157.4947 C.3     1  UNL1        0.2525
     19 O         137.6516  140.2271  158.4247 O.3     1  UNL1       -0.4700
     20 C         142.5371  134.8867  154.5652 C.3     1  UNL1        0.1561
     21 C         142.3791  133.4572  154.9915 C.ar    1  UNL1        0.0091
     22 C         141.3519  132.4924  154.4778 C.ar    1  UNL1        0.0331
     23 S         141.5586  131.1805  155.1751 S.2     1  UNL1       -0.0867
     24 C         142.7135  131.3346  156.1198 C.ar    1  UNL1        0.0292
     25 C         143.3689  130.3754  157.0687 C.ar    1  UNL1        0.0065
     26 C         144.5314  130.8234  157.9041 C.ar    1  UNL1        0.0005
     27 C         145.0385  132.2305  157.7906 C.ar    1  UNL1        0.0000
     28 C         144.3831  133.1897  156.8417 C.ar    1  UNL1        0.0003
     29 C         143.2206  132.7417  156.0063 C.ar    1  UNL1        0.0044
@<TRIPOS>BOND
     1    18    19    1
     2    19     6    1
     3     6     7   ar
     4     7     8   ar
     5     8     1    1
     6     1     2   ar
     7     2     3   ar
     8     3    20    1
     9    20    21    1
    10    21    22   ar
    11    22    23   ar
    12    23    24   ar
    13    24    25   ar
    14    25    26   ar
    15    26    27   ar
    16    27    28   ar
    17    28    29   ar
    18     3     4   ar
    19     4     5   ar
    20     8     9   ar
    21     9    10   ar
    22    10    11   ar
    23    11    12    1
    24    12    13   ar
    25    13    14   ar
    26    14    15   ar
    27    15    16    1
    28    15    17   ar
    29    11     6   ar
    30    17    12   ar
    31     5     1   ar
    32    29    21   ar
    33    29    24   ar
@<TRIPOS>MOLECULE
*****
 29 33 0 0 0
SMALL
GASTEIGER

@<TRIPOS>ATOM
      1 C         141.9429  138.0961  160.1810 C.ar    1  UNL1        0.1233
      2 C         142.9105  137.2658  159.3907 C.ar    1  UNL1        0.1179
      3 N         142.4711  137.2815  157.9565 N.ar    1  UNL1       -0.2257
      4 N         141.2321  138.1214  157.8605 N.ar    1  UNL1       -0.0635
      5 N         140.9057  138.6248  159.2353 N.ar    1  UNL1       -0.1287
      6 C         142.9235  139.7138  163.6697 C.ar    1  UNL1        0.1547
      7 C         142.8642  139.4574  162.1929 C.ar    1  UNL1        0.0400
      8 C         142.0023  138.3525  161.6577 C.ar    1  UNL1        0.0241
      9 C         141.1999  137.5042  162.5991 C.ar    1  UNL1        0.0033
     10 C         141.2592  137.7606  164.0758 C.ar    1  UNL1        0.0207
     11 C         142.1211  138.8655  164.6111 C.ar    1  UNL1        0.0994
     12 N         142.1805  139.1219  166.0878 N.ar    1  UNL1       -0.2839
     13 C         143.2702  138.6758  167.0171 C.ar    1  UNL1        0.1826
     14 N         142.9238  139.1477  168.3981 N.ar    1  UNL1       -0.2280
     15 C         141.6199  139.8854  168.3224 C.ar    1  UNL1        0.0786
     16 C         140.9015  140.5265  169.4726 C.3     1  UNL1        0.0538
     17 C         141.1606  139.8695  166.8946 C.ar    1  UNL1        0.0963
     18 C         145.2767  140.7424  164.0631 C.3     1  UNL1        0.2525
     19 O         143.7854  140.8187  164.2050 O.3     1  UNL1       -0.4700
     20 C         143.1514  136.5803  156.8182 C.3     1  UNL1        0.1561
     21 C         142.6526  135.2436  156.3551 C.ar    1  UNL1        0.0091
     22 C         141.5093  135.0072  155.4134 C.ar    1  UNL1        0.0331
     23 S         141.3596  133.5261  155.2287 S.2     1  UNL1       -0.0867
     24 C         142.4104  132.8473  156.0564 C.ar    1  UNL1        0.0292
     25 C         142.7428  131.3997  156.2661 C.ar    1  UNL1        0.0065
     26 C         143.8743  131.0136  157.1719 C.ar    1  UNL1        0.0005
     27 C         144.6734  132.0751  157.8681 C.ar    1  UNL1        0.0000
     28 C         144.3410  133.5227  157.6584 C.ar    1  UNL1        0.0003
     29 C         143.2095  133.9088  156.7526 C.ar    1  UNL1        0.0044
@<TRIPOS>BOND
     1    18    19    1
     2    19     6    1
     3     6     7   ar
     4     7     8   ar
     5     8     1    1
     6     1     2   ar
     7     2     3   ar
     8     3    20    1
     9    20    21    1
    10    21    22   ar
    11    22    23   ar
    12    23    24   ar
    13    24    25   ar
    14    25    26   ar
    15    26    27   ar
    16    27    28   ar
    17    28    29   ar
    18     3     4   ar
    19     4     5   ar
    20     8     9   ar
    21     9    10   ar
    22    10    11   ar
    23    11    12    1
    24    12    13   ar
    25    13    14   ar
    26    14    15   ar
    27    15    16    1
    28    15    17   ar
    29    11     6   ar
    30    17    12   ar
    31     5     1   ar
    32    29    21   ar
    33    29    24   ar
@<TRIPOS>MOLECULE
*****
 29 33 0 0 0
SMALL
GASTEIGER

@<TRIPOS>ATOM
      1 C         143.0948  138.3815  159.7293 C.ar    1  UNL1        0.1233
      2 C         142.4439  137.2765  158.9511 C.ar    1  UNL1        0.1179
      3 N         142.7222  137.5084  157.4956 N.ar    1  UNL1       -0.2257
      4 N         143.5451  138.7566  157.3741 N.ar    1  UNL1       -0.0635
      5 N         143.7754  139.2962  158.7546 N.ar    1  UNL1       -0.1287
      6 C         142.0191  137.9750  163.5276 C.ar    1  UNL1        0.1547
      7 C         142.0444  137.8133  162.0366 C.ar    1  UNL1        0.0400
      8 C         143.0695  138.5432  161.2203 C.ar    1  UNL1        0.0241
      9 C         144.0694  139.4348  161.8951 C.ar    1  UNL1        0.0033
     10 C         144.0441  139.5966  163.3861 C.ar    1  UNL1        0.0207
     11 C         143.0189  138.8666  164.2024 C.ar    1  UNL1        0.0994
     12 N         142.9937  139.0284  165.6934 N.ar    1  UNL1       -0.2839
     13 C         143.5784  138.0757  166.6937 C.ar    1  UNL1        0.1826
     14 N         143.3254  138.6297  168.0644 N.ar    1  UNL1       -0.2280
     15 C         142.5843  139.9248  167.9114 C.ar    1  UNL1        0.0786
     16 C         142.1282  140.8169  169.0277 C.3     1  UNL1        0.0538
     17 C         142.3793  140.1712  166.4460 C.ar    1  UNL1        0.0963
     18 C         139.6195  137.8218  164.5116 C.3     1  UNL1        0.2525
     19 O         140.9940  137.2451  164.3440 O.3     1  UNL1       -0.4700
     20 C         142.2589  136.6439  156.3606 C.3     1  UNL1        0.1561
     21 C         142.7650  135.2375  156.2341 C.ar    1  UNL1        0.0091
     22 C         143.5535  134.4879  157.2668 C.ar    1  UNL1        0.0331
     23 S         143.8472  133.1210  156.7235 S.2     1  UNL1       -0.0867
     24 C         143.2404  133.0257  155.3551 C.ar    1  UNL1        0.0292
     25 C         143.2104  131.9169  154.3454 C.ar    1  UNL1        0.0065
     26 C         142.5115  132.1161  153.0332 C.ar    1  UNL1        0.0005
     27 C         141.8427  133.4242  152.7307 C.ar    1  UNL1        0.0000
     28 C         141.8726  134.5331  153.7404 C.ar    1  UNL1        0.0003
     29 C         142.5715  134.3338  155.0526 C.ar    1  UNL1        0.0044
@<TRIPOS>BOND
     1    18    19    1
     2    19     6    1
     3     6     7   ar
     4     7     8   ar
     5     8     1    1
     6     1     2   ar
     7     2     3   ar
     8     3    20    1
     9    20    21    1
    10    21    22   ar
    11    22    23   ar
    12    23    24   ar
    13    24    25   ar
    14    25    26   ar
    15    26    27   ar
    16    27    28   ar
    17    28    29   ar
    18     3     4   ar
    19     4     5   ar
    20     8     9   ar
    21     9    10   ar
    22    10    11   ar
    23    11    12    1
    24    12    13   ar
    25    13    14   ar
    26    14    15   ar
    27    15    16    1
    28    15    17   ar
    29    11     6   ar
    30    17    12   ar
    31     5     1   ar
    32    29    21   ar
    33    29    24   ar
@<TRIPOS>MOLECULE
*****
 29 33 0 0 0
SMALL
GASTEIGER

@<TRIPOS>ATOM
      1 C         143.6639  141.5555  162.2634 C.ar    1  UNL1        0.1233
      2 C         142.9336  140.8033  163.3362 C.ar    1  UNL1        0.1179
      3 N         143.9537  140.1505  164.2211 N.ar    1  UNL1       -0.2257
      4 N         145.3145  140.4992  163.6952 N.ar    1  UNL1       -0.0635
      5 N         145.1354  141.3675  162.4853 N.ar    1  UNL1       -0.1287
      6 C         141.1547  143.9433  160.3264 C.ar    1  UNL1        0.1547
      7 C         141.7852  143.1436  161.4277 C.ar    1  UNL1        0.0400
      8 C         143.0334  142.3551  161.1620 C.ar    1  UNL1        0.0241
      9 C         143.6509  142.3664  159.7951 C.ar    1  UNL1        0.0033
     10 C         143.0204  143.1661  158.6938 C.ar    1  UNL1        0.0207
     11 C         141.7722  143.9545  158.9595 C.ar    1  UNL1        0.0994
     12 N         141.1417  144.7542  157.8581 N.ar    1  UNL1       -0.2839
     13 C         141.7064  145.9971  157.2364 C.ar    1  UNL1        0.1826
     14 N         140.7495  146.4624  156.1792 N.ar    1  UNL1       -0.2280
     15 C         139.5934  145.5072  156.1475 C.ar    1  UNL1        0.0786
     16 C         138.4037  145.5927  155.2378 C.3     1  UNL1        0.0538
     17 C         139.8358  144.4515  157.1851 C.ar    1  UNL1        0.0963
     18 C         139.9334  145.8735  161.5644 C.3     1  UNL1        0.2525
     19 O         139.9066  144.7317  160.5919 O.3     1  UNL1       -0.4700
     20 C         143.6640  139.2986  165.4213 C.3     1  UNL1        0.1561
     21 C         142.5336  139.6567  166.3400 C.ar    1  UNL1        0.0091
     22 C         142.6391  140.4839  167.5869 C.ar    1  UNL1        0.0331
     23 S         141.2700  140.5889  168.1906 S.2     1  UNL1       -0.0867
     24 C         140.3183  139.8266  167.3168 C.ar    1  UNL1        0.0292
     25 C         138.8416  139.5827  167.4149 C.ar    1  UNL1        0.0065
     26 C         138.1458  138.7627  166.3693 C.ar    1  UNL1        0.0005
     27 C         138.9268  138.1865  165.2256 C.ar    1  UNL1        0.0000
     28 C         140.4036  138.4304  165.1275 C.ar    1  UNL1        0.0003
     29 C         141.0993  139.2505  166.1731 C.ar    1  UNL1        0.0044
@<TRIPOS>BOND
     1    18    19    1
     2    19     6    1
     3     6     7   ar
     4     7     8   ar
     5     8     1    1
     6     1     2   ar
     7     2     3   ar
     8     3    20    1
     9    20    21    1
    10    21    22   ar
    11    22    23   ar
    12    23    24   ar
    13    24    25   ar
    14    25    26   ar
    15    26    27   ar
    16    27    28   ar
    17    28    29   ar
    18     3     4   ar
    19     4     5   ar
    20     8     9   ar
    21     9    10   ar
    22    10    11   ar
    23    11    12    1
    24    12    13   ar
    25    13    14   ar
    26    14    15   ar
    27    15    16    1
    28    15    17   ar
    29    11     6   ar
    30    17    12   ar
    31     5     1   ar
    32    29    21   ar
    33    29    24   ar
@<TRIPOS>MOLECULE
*****
 29 33 0 0 0
SMALL
GASTEIGER

@<TRIPOS>ATOM
      1 C         141.3748  145.1429  159.0593 C.ar    1  UNL1        0.1233
      2 C         140.0580  145.4550  158.4122 C.ar    1  UNL1        0.1179
      3 N         140.3343  146.0934  157.0833 N.ar    1  UNL1       -0.2257
      4 N         141.8218  146.1757  156.9089 N.ar    1  UNL1       -0.0635
      5 N         142.4648  145.5883  158.1301 N.ar    1  UNL1       -0.1287
      6 C         141.1119  144.4454  162.9572 C.ar    1  UNL1        0.1547
      7 C         140.9191  145.0898  161.6165 C.ar    1  UNL1        0.0400
      8 C         141.5676  144.4985  160.4000 C.ar    1  UNL1        0.0241
      9 C         142.4088  143.2628  160.5242 C.ar    1  UNL1        0.0033
     10 C         142.6016  142.6184  161.8649 C.ar    1  UNL1        0.0207
     11 C         141.9532  143.2097  163.0815 C.ar    1  UNL1        0.0994
     12 N         142.1460  142.5653  164.4222 N.ar    1  UNL1       -0.2839
     13 C         143.3021  142.7911  165.3509 C.ar    1  UNL1        0.1826
     14 N         143.0872  141.9473  166.5723 N.ar    1  UNL1       -0.2280
     15 C         141.7983  141.2000  166.3984 C.ar    1  UNL1        0.0786
     16 C         141.1967  140.2394  167.3809 C.3     1  UNL1        0.0538
     17 C         141.2166  141.5820  165.0696 C.ar    1  UNL1        0.0963
     18 C         139.0523  144.6691  164.5249 C.3     1  UNL1        0.2525
     19 O         140.4635  145.0366  164.1738 O.3     1  UNL1       -0.4700
     20 C         139.3039  146.5663  156.1010 C.3     1  UNL1        0.1561
     21 C         139.6987  147.4878  154.9852 C.ar    1  UNL1        0.0091
     22 C         140.4994  147.1127  153.7736 C.ar    1  UNL1        0.0331
     23 S         140.6577  148.3392  152.9247 S.2     1  UNL1       -0.0867
     24 C         139.9547  149.4723  153.6116 C.ar    1  UNL1        0.0292
     25 C         139.7777  150.9152  153.2421 C.ar    1  UNL1        0.0065
     26 C         139.0080  151.8319  154.1461 C.ar    1  UNL1        0.0005
     27 C         138.4153  151.3057  155.4196 C.ar    1  UNL1        0.0000
     28 C         138.5923  149.8628  155.7891 C.ar    1  UNL1        0.0003
     29 C         139.3620  148.9461  154.8851 C.ar    1  UNL1        0.0044
@<TRIPOS>BOND
     1    18    19    1
     2    19     6    1
     3     6     7   ar
     4     7     8   ar
     5     8     1    1
     6     1     2   ar
     7     2     3   ar
     8     3    20    1
     9    20    21    1
    10    21    22   ar
    11    22    23   ar
    12    23    24   ar
    13    24    25   ar
    14    25    26   ar
    15    26    27   ar
    16    27    28   ar
    17    28    29   ar
    18     3     4   ar
    19     4     5   ar
    20     8     9   ar
    21     9    10   ar
    22    10    11   ar
    23    11    12    1
    24    12    13   ar
    25    13    14   ar
    26    14    15   ar
    27    15    16    1
    28    15    17   ar
    29    11     6   ar
    30    17    12   ar
    31     5     1   ar
    32    29    21   ar
    33    29    24   ar
@<TRIPOS>MOLECULE
*****
 29 33 0 0 0
SMALL
GASTEIGER

@<TRIPOS>ATOM
      1 C         138.1641  140.3889  160.0665 C.ar    1  UNL1        0.1233
      2 C         139.1617  141.0633  159.1720 C.ar    1  UNL1        0.1179
      3 N         138.6477  140.9881  157.7649 N.ar    1  UNL1       -0.2257
      4 N         137.3326  140.2672  157.7896 N.ar    1  UNL1       -0.0635
      5 N         137.0337  139.8969  159.2121 N.ar    1  UNL1       -0.1287
      6 C         139.0402  138.8570  163.6212 C.ar    1  UNL1        0.1547
      7 C         138.9271  139.0122  162.1335 C.ar    1  UNL1        0.0400
      8 C         138.2772  140.2337  161.5542 C.ar    1  UNL1        0.0241
      9 C         137.7404  141.2999  162.4625 C.ar    1  UNL1        0.0033
     10 C         137.8535  141.1447  163.9501 C.ar    1  UNL1        0.0207
     11 C         138.5034  139.9232  164.5295 C.ar    1  UNL1        0.0994
     12 N         138.6165  139.7680  166.0171 N.ar    1  UNL1       -0.2839
     13 C         137.7323  138.9225  166.8851 C.ar    1  UNL1        0.1826
     14 N         138.2030  139.0631  168.3024 N.ar    1  UNL1       -0.2280
     15 C         139.3780  139.9954  168.3103 C.ar    1  UNL1        0.0786
     16 C         140.1602  140.4178  169.5186 C.3     1  UNL1        0.0538
     17 C         139.6336  140.4310  166.8980 C.ar    1  UNL1        0.0963
     18 C         141.1629  137.6330  164.4849 C.3     1  UNL1        0.2525
     19 O         139.6901  137.6355  164.2006 O.3     1  UNL1       -0.4700
     20 C         139.3293  141.5375  156.5467 C.3     1  UNL1        0.1561
     21 C         138.7435  142.7159  155.8268 C.ar    1  UNL1        0.0091
     22 C         137.7496  142.6587  154.7048 C.ar    1  UNL1        0.0331
     23 S         137.4407  144.0659  154.2872 S.2     1  UNL1       -0.0867
     24 C         138.2437  144.9927  155.1511 C.ar    1  UNL1        0.0292
     25 C         138.3457  146.4886  155.1941 C.ar    1  UNL1        0.0065
     26 C         139.2529  147.1501  156.1888 C.ar    1  UNL1        0.0005
     27 C         140.0581  146.3157  157.1404 C.ar    1  UNL1        0.0000
     28 C         139.9561  144.8199  157.0973 C.ar    1  UNL1        0.0003
     29 C         139.0489  144.1584  156.1026 C.ar    1  UNL1        0.0044
@<TRIPOS>BOND
     1    18    19    1
     2    19     6    1
     3     6     7   ar
     4     7     8   ar
     5     8     1    1
     6     1     2   ar
     7     2     3   ar
     8     3    20    1
     9    20    21    1
    10    21    22   ar
    11    22    23   ar
    12    23    24   ar
    13    24    25   ar
    14    25    26   ar
    15    26    27   ar
    16    27    28   ar
    17    28    29   ar
    18     3     4   ar
    19     4     5   ar
    20     8     9   ar
    21     9    10   ar
    22    10    11   ar
    23    11    12    1
    24    12    13   ar
    25    13    14   ar
    26    14    15   ar
    27    15    16    1
    28    15    17   ar
    29    11     6   ar
    30    17    12   ar
    31     5     1   ar
    32    29    21   ar
    33    29    24   ar
