@<TRIPOS>MOLECULE
*****
 39 43 0 0 0
SMALL
GASTEIGER

@<TRIPOS>ATOM
      1 C         141.2314  141.4927  163.1453 C.ar    1  UNL1        0.1200
      2 N         141.7702  141.1952  164.5132 N.ar    1  UNL1       -0.2309
      3 C         141.4048  142.3375  165.4140 C.ar    1  UNL1        0.0997
      4 C         140.6400  143.3412  164.6028 C.ar    1  UNL1        0.0961
      5 N         140.5329  142.8190  163.2007 N.ar    1  UNL1       -0.3123
      6 C         141.7444  142.4556  166.8703 C.ar    1  UNL1        0.0193
      7 C         143.1579  142.2530  167.3296 C.ar    1  UNL1        0.0038
      8 C         143.4976  142.3710  168.7857 C.ar    1  UNL1        0.0296
      9 C         142.4237  142.6917  169.7828 C.ar    1  UNL1        0.1440
     10 F         142.7633  142.8097  171.2390 F       1  UNL1       -0.2042
     11 C         141.0102  142.8943  169.3235 C.ar    1  UNL1        0.0988
     12 C         140.6705  142.7762  167.8672 C.ar    1  UNL1        0.0077
     13 C         139.9363  143.2149  170.3205 C.3     1  UNL1        0.4207
     14 F         138.8624  143.5355  171.3175 F       1  UNL1       -0.1658
     15 F         139.5794  141.7604  170.4038 F       1  UNL1       -0.1658
     16 F         140.2932  144.6694  170.2372 F       1  UNL1       -0.1658
     17 N         141.6387  138.8674  159.5133 N.pl3   1  UNL1       -0.2934
     18 C         141.1068  138.2975  160.7948 C.3     1  UNL1        0.0926
     19 C         140.9710  139.1726  162.0055 C.3     1  UNL1        0.0290
     20 C         141.3671  140.6176  161.9347 C.3     1  UNL1        0.0603
     21 C         141.8991  141.1875  160.6532 C.3     1  UNL1        0.0290
     22 C         142.0349  140.3124  159.4425 C.3     1  UNL1        0.0926
     23 C         140.6706  137.9383  157.2885 C.ar    1  UNL1        0.0406
     24 C         140.8064  137.0632  156.0779 C.ar    1  UNL1        0.1258
     25 N         139.7024  137.0092  155.0638 N.pl3   1  UNL1       -0.3428
     26 N         142.0461  136.2419  155.8814 N.ar    1  UNL1       -0.2097
     27 C         143.1501  136.2959  156.8955 C.ar    1  UNL1        0.2012
     28 N         143.0143  137.1710  158.1061 N.ar    1  UNL1       -0.2092
     29 C         141.7745  137.9922  158.3026 C.ar    1  UNL1        0.1320
     30 H         138.8887  137.5482  155.1927 H       1  UNL1        0.1437
     31 H         139.7916  136.4348  154.2692 H       1  UNL1        0.1437
     32 C         139.3168  140.1107  156.8439 C.3     1  UNL1        0.0052
     33 C         139.4308  138.7595  157.4851 C.3     1  UNL1        0.0320
     34 C         139.8476  143.5031  162.0551 C.3     1  UNL1        0.1245
     35 C         138.4345  143.1432  161.7035 C.3     1  UNL1        0.0969
     36 N         138.0691  141.7133  161.4358 N.3     1  UNL1       -0.2710
     37 C         138.0739  140.8258  160.2266 C.3     1  UNL1        0.0736
     38 C         137.5524  139.6910  161.0574 C.3     1  UNL1        0.0346
     39 C         137.5475  140.5785  162.2666 C.3     1  UNL1        0.0736
@<TRIPOS>BOND
     1    32    33    1
     2    33    23    1
     3    23    24   ar
     4    24    25    1
     5    24    26   ar
     6    26    27   ar
     7    27    28   ar
     8    28    29   ar
     9    29    17    1
    10    17    18    1
    11    18    19    1
    12    19    20    1
    13    20     1    1
    14     1     2   ar
    15     2     3   ar
    16     3     6    1
    17     6     7   ar
    18     7     8   ar
    19     8     9   ar
    20     9    10    1
    21     9    11   ar
    22    11    13    1
    23    13    14    1
    24    13    15    1
    25    13    16    1
    26    11    12   ar
    27     3     4   ar
    28     4     5   ar
    29     5    34    1
    30    34    35    1
    31    35    36    1
    32    36    37    1
    33    37    38    1
    34    38    39    1
    35    20    21    1
    36    21    22    1
    37    29    23   ar
    38    22    17    1
    39     5     1   ar
    40    39    36    1
    41    12     6   ar
    42    25    30    1
    43    25    31    1
@<TRIPOS>MOLECULE
*****
 39 43 0 0 0
SMALL
GASTEIGER

@<TRIPOS>ATOM
      1 C         142.0601  139.8922  160.8641 C.ar    1  UNL1        0.1200
      2 N         141.5840  138.6687  160.1386 N.ar    1  UNL1       -0.2309
      3 C         142.0394  138.7686  158.7130 C.ar    1  UNL1        0.0997
      4 C         142.7971  140.0539  158.5573 C.ar    1  UNL1        0.0961
      5 N         142.8099  140.7483  159.8868 N.ar    1  UNL1       -0.3123
      6 C         141.7823  137.7603  157.6326 C.ar    1  UNL1        0.0193
      7 C         140.5525  137.8706  156.7809 C.ar    1  UNL1        0.0038
      8 C         140.2954  136.8624  155.7006 C.ar    1  UNL1        0.0296
      9 C         141.2682  135.7436  155.4718 C.ar    1  UNL1        0.1440
     10 F         141.0111  134.7353  154.3915 F       1  UNL1       -0.2042
     11 C         142.4980  135.6333  156.3234 C.ar    1  UNL1        0.0988
     12 C         142.7551  136.6416  157.4038 C.ar    1  UNL1        0.0077
     13 C         143.4708  134.5147  156.0947 C.3     1  UNL1        0.4207
     14 F         144.4435  133.3960  155.8660 F       1  UNL1       -0.1658
     15 F         142.5905  133.5885  156.8804 F       1  UNL1       -0.1658
     16 F         144.3510  135.4408  155.3090 F       1  UNL1       -0.1658
     17 N         141.3621  140.8299  165.2096 N.pl3   1  UNL1       -0.2934
     18 C         142.3283  139.7503  164.8211 C.3     1  UNL1        0.0926
     19 C         142.5610  139.4377  163.3727 C.3     1  UNL1        0.0290
     20 C         141.8275  140.2048  162.3126 C.3     1  UNL1        0.0603
     21 C         140.8612  141.2844  162.7011 C.3     1  UNL1        0.0290
     22 C         140.6286  141.5969  164.1497 C.3     1  UNL1        0.0926
     23 C         140.0949  140.3812  167.4329 C.ar    1  UNL1        0.0406
     24 C         139.8623  140.6938  168.8814 C.ar    1  UNL1        0.1258
     25 N         138.8277  139.9325  169.6562 N.pl3   1  UNL1       -0.3428
     26 N         140.6642  141.7675  169.5552 N.ar    1  UNL1       -0.2097
     27 C         141.6987  142.5287  168.7804 C.ar    1  UNL1        0.2012
     28 N         141.9313  142.2162  167.3320 N.ar    1  UNL1       -0.2092
     29 C         141.1294  141.1424  166.6582 C.ar    1  UNL1        0.1320
     30 H         138.3013  139.2278  169.2140 H       1  UNL1        0.1437
     31 H         138.6750  140.1377  170.6069 H       1  UNL1        0.1437
     32 C         138.0965  139.6726  165.9315 C.3     1  UNL1        0.0052
     33 C         139.2930  139.3074  166.7592 C.3     1  UNL1        0.0320
     34 C         143.4585  142.0672  160.1864 C.3     1  UNL1        0.1245
     35 C         144.7695  142.1102  160.9138 C.3     1  UNL1        0.0969
     36 N         144.7952  142.2782  162.4042 N.3     1  UNL1       -0.2710
     37 C         145.5962  141.6845  163.5248 C.3     1  UNL1        0.0736
     38 C         144.8315  142.5157  164.5118 C.3     1  UNL1        0.0346
     39 C         144.0305  143.1094  163.3912 C.3     1  UNL1        0.0736
@<TRIPOS>BOND
     1    32    33    1
     2    33    23    1
     3    23    24   ar
     4    24    25    1
     5    24    26   ar
     6    26    27   ar
     7    27    28   ar
     8    28    29   ar
     9    29    17    1
    10    17    18    1
    11    18    19    1
    12    19    20    1
    13    20     1    1
    14     1     2   ar
    15     2     3   ar
    16     3     6    1
    17     6     7   ar
    18     7     8   ar
    19     8     9   ar
    20     9    10    1
    21     9    11   ar
    22    11    13    1
    23    13    14    1
    24    13    15    1
    25    13    16    1
    26    11    12   ar
    27     3     4   ar
    28     4     5   ar
    29     5    34    1
    30    34    35    1
    31    35    36    1
    32    36    37    1
    33    37    38    1
    34    38    39    1
    35    20    21    1
    36    21    22    1
    37    29    23   ar
    38    22    17    1
    39     5     1   ar
    40    39    36    1
    41    12     6   ar
    42    25    30    1
    43    25    31    1
@<TRIPOS>MOLECULE
*****
 39 43 0 0 0
SMALL
GASTEIGER

@<TRIPOS>ATOM
      1 C         143.0063  140.5817  163.6602 C.ar    1  UNL1        0.1200
      2 N         142.2800  140.1869  164.9118 N.ar    1  UNL1       -0.2309
      3 C         142.8143  141.0188  166.0398 C.ar    1  UNL1        0.0997
      4 C         143.8709  141.9278  165.4853 C.ar    1  UNL1        0.0961
      5 N         143.9895  141.6577  164.0146 N.ar    1  UNL1       -0.3123
      6 C         142.3701  140.9532  167.4710 C.ar    1  UNL1        0.0193
      7 C         142.6839  139.7424  168.2990 C.ar    1  UNL1        0.0038
      8 C         142.2397  139.6768  169.7301 C.ar    1  UNL1        0.0296
      9 C         141.4816  140.8220  170.3335 C.ar    1  UNL1        0.1440
     10 F         141.0374  140.7564  171.7646 F       1  UNL1       -0.2042
     11 C         141.1678  142.0328  169.5055 C.ar    1  UNL1        0.0988
     12 C         141.6121  142.0984  168.0743 C.ar    1  UNL1        0.0077
     13 C         140.4098  143.1780  170.1087 C.3     1  UNL1        0.4207
     14 F         139.6518  144.3232  170.7120 F       1  UNL1       -0.1658
     15 F         139.1768  142.3265  170.1758 F       1  UNL1       -0.1658
     16 F         141.6429  144.0295  170.0417 F       1  UNL1       -0.1658
     17 N         142.3506  138.8436  159.5615 N.pl3   1  UNL1       -0.2934
     18 C         142.7135  137.9463  160.7075 C.3     1  UNL1        0.0926
     19 C         142.9320  138.5256  162.0737 C.3     1  UNL1        0.0290
     20 C         142.7877  140.0024  162.2940 C.3     1  UNL1        0.0603
     21 C         142.4249  140.8997  161.1480 C.3     1  UNL1        0.0290
     22 C         142.2063  140.3202  159.7818 C.3     1  UNL1        0.0926
     23 C         140.7421  137.9484  157.7281 C.ar    1  UNL1        0.0406
     24 C         140.5236  137.3690  156.3619 C.ar    1  UNL1        0.1258
     25 N         139.1336  137.0532  155.8947 N.pl3   1  UNL1       -0.3428
     26 N         141.6951  137.1053  155.4629 N.ar    1  UNL1       -0.2097
     27 C         143.0850  137.4211  155.9301 C.ar    1  UNL1        0.2012
     28 N         143.3035  138.0005  157.2963 N.ar    1  UNL1       -0.2092
     29 C         142.1321  138.2641  158.1953 C.ar    1  UNL1        0.1320
     30 H         138.3647  137.2262  156.4847 H       1  UNL1        0.1437
     31 H         138.9902  136.6729  154.9980 H       1  UNL1        0.1437
     32 C         138.9201  139.5635  158.6343 C.3     1  UNL1        0.0052
     33 C         139.5707  138.2120  158.6271 C.3     1  UNL1        0.0320
     34 C         144.9268  142.3432  163.0651 C.3     1  UNL1        0.1245
     35 C         144.4807  143.5692  162.3250 C.3     1  UNL1        0.0969
     36 N         143.2292  144.2832  162.7419 N.3     1  UNL1       -0.2710
     37 C         141.8478  144.4215  162.1742 C.3     1  UNL1        0.0736
     38 C         141.4594  145.2930  163.3316 C.3     1  UNL1        0.0346
     39 C         142.8408  145.1547  163.8993 C.3     1  UNL1        0.0736
@<TRIPOS>BOND
     1    32    33    1
     2    33    23    1
     3    23    24   ar
     4    24    25    1
     5    24    26   ar
     6    26    27   ar
     7    27    28   ar
     8    28    29   ar
     9    29    17    1
    10    17    18    1
    11    18    19    1
    12    19    20    1
    13    20     1    1
    14     1     2   ar
    15     2     3   ar
    16     3     6    1
    17     6     7   ar
    18     7     8   ar
    19     8     9   ar
    20     9    10    1
    21     9    11   ar
    22    11    13    1
    23    13    14    1
    24    13    15    1
    25    13    16    1
    26    11    12   ar
    27     3     4   ar
    28     4     5   ar
    29     5    34    1
    30    34    35    1
    31    35    36    1
    32    36    37    1
    33    37    38    1
    34    38    39    1
    35    20    21    1
    36    21    22    1
    37    29    23   ar
    38    22    17    1
    39     5     1   ar
    40    39    36    1
    41    12     6   ar
    42    25    30    1
    43    25    31    1
@<TRIPOS>MOLECULE
*****
 39 43 0 0 0
SMALL
GASTEIGER

@<TRIPOS>ATOM
      1 C         140.7321  139.5992  163.2265 C.ar    1  UNL1        0.1200
      2 N         141.3550  139.9911  164.5336 N.ar    1  UNL1       -0.2309
      3 C         140.3009  139.8959  165.5964 C.ar    1  UNL1        0.0997
      4 C         139.0264  139.4451  164.9463 C.ar    1  UNL1        0.0961
      5 N         139.2930  139.2617  163.4816 N.ar    1  UNL1       -0.3123
      6 C         140.4882  140.1984  167.0536 C.ar    1  UNL1        0.0193
      7 C         139.3762  139.9311  168.0241 C.ar    1  UNL1        0.0038
      8 C         139.5634  140.2336  169.4813 C.ar    1  UNL1        0.0296
      9 C         140.8629  140.8034  169.9681 C.ar    1  UNL1        0.1440
     10 F         141.0502  141.1058  171.4252 F       1  UNL1       -0.2042
     11 C         141.9750  141.0706  168.9976 C.ar    1  UNL1        0.0988
     12 C         141.7876  140.7682  167.5403 C.ar    1  UNL1        0.0077
     13 C         143.2744  141.6404  169.4843 C.3     1  UNL1        0.4207
     14 F         144.5738  142.2102  169.9710 F       1  UNL1       -0.1658
     15 F         143.0442  142.8710  168.6580 F       1  UNL1       -0.1658
     16 F         143.5045  140.4098  170.3105 F       1  UNL1       -0.1658
     17 N         142.8152  139.4602  159.2401 N.pl3   1  UNL1       -0.2934
     18 C         141.7072  140.4440  159.4735 C.3     1  UNL1        0.0926
     19 C         141.0129  140.4904  160.8023 C.3     1  UNL1        0.0290
     20 C         141.4265  139.5528  161.8977 C.3     1  UNL1        0.0603
     21 C         142.5344  138.5689  161.6644 C.3     1  UNL1        0.0290
     22 C         143.2288  138.5226  160.3355 C.3     1  UNL1        0.0926
     23 C         143.1121  138.3869  156.8927 C.ar    1  UNL1        0.0406
     24 C         143.8064  138.3406  155.5640 C.ar    1  UNL1        0.1258
     25 N         143.4090  137.3136  154.5454 N.pl3   1  UNL1       -0.3428
     26 N         144.8982  139.3213  155.2537 N.ar    1  UNL1       -0.2097
     27 C         145.2956  140.3482  156.2722 C.ar    1  UNL1        0.2012
     28 N         144.6013  140.3945  157.6009 N.ar    1  UNL1       -0.2092
     29 C         143.5095  139.4138  157.9112 C.ar    1  UNL1        0.1320
     30 H         142.6924  136.6700  154.7490 H       1  UNL1        0.1437
     31 H         143.8647  137.2833  153.6732 H       1  UNL1        0.1437
     32 C         140.6028  137.7169  156.8233 C.3     1  UNL1        0.0052
     33 C         142.0203  137.4062  157.2030 C.3     1  UNL1        0.0320
     34 C         138.2956  138.8186  162.4526 C.3     1  UNL1        0.1245
     35 C         137.4826  139.8365  161.7090 C.3     1  UNL1        0.0969
     36 N         137.6167  141.2927  162.0427 N.3     1  UNL1       -0.2710
     37 C         137.3235  142.1361  163.2479 C.3     1  UNL1        0.0736
     38 C         137.8064  143.3521  162.5145 C.3     1  UNL1        0.0346
     39 C         138.0997  142.5088  161.3093 C.3     1  UNL1        0.0736
@<TRIPOS>BOND
     1    32    33    1
     2    33    23    1
     3    23    24   ar
     4    24    25    1
     5    24    26   ar
     6    26    27   ar
     7    27    28   ar
     8    28    29   ar
     9    29    17    1
    10    17    18    1
    11    18    19    1
    12    19    20    1
    13    20     1    1
    14     1     2   ar
    15     2     3   ar
    16     3     6    1
    17     6     7   ar
    18     7     8   ar
    19     8     9   ar
    20     9    10    1
    21     9    11   ar
    22    11    13    1
    23    13    14    1
    24    13    15    1
    25    13    16    1
    26    11    12   ar
    27     3     4   ar
    28     4     5   ar
    29     5    34    1
    30    34    35    1
    31    35    36    1
    32    36    37    1
    33    37    38    1
    34    38    39    1
    35    20    21    1
    36    21    22    1
    37    29    23   ar
    38    22    17    1
    39     5     1   ar
    40    39    36    1
    41    12     6   ar
    42    25    30    1
    43    25    31    1
@<TRIPOS>MOLECULE
*****
 39 43 0 0 0
SMALL
GASTEIGER

@<TRIPOS>ATOM
      1 C         141.4227  141.2684  163.0639 C.ar    1  UNL1        0.1200
      2 N         142.2332  141.4628  164.3110 N.ar    1  UNL1       -0.2309
      3 C         141.3013  141.8829  165.4087 C.ar    1  UNL1        0.0997
      4 C         139.9147  141.9482  164.8400 C.ar    1  UNL1        0.0961
      5 N         139.9898  141.5684  163.3908 N.ar    1  UNL1       -0.3123
      6 C         141.6879  142.1847  166.8262 C.ar    1  UNL1        0.0193
      7 C         143.1277  142.1174  167.2415 C.ar    1  UNL1        0.0038
      8 C         143.5144  142.4192  168.6590 C.ar    1  UNL1        0.0296
      9 C         142.4611  142.7884  169.6614 C.ar    1  UNL1        0.1440
     10 F         142.8477  143.0902  171.0788 F       1  UNL1       -0.2042
     11 C         141.0214  142.8557  169.2461 C.ar    1  UNL1        0.0988
     12 C         140.6347  142.5538  167.8285 C.ar    1  UNL1        0.0077
     13 C         139.9682  143.2248  170.2483 C.3     1  UNL1        0.4207
     14 F         138.9150  143.5940  171.2506 F       1  UNL1       -0.1658
     15 F         139.5753  141.7821  170.3669 F       1  UNL1       -0.1658
     16 F         140.3611  144.6676  170.1298 F       1  UNL1       -0.1658
     17 N         143.0111  140.0069  159.0469 N.pl3   1  UNL1       -0.2934
     18 C         142.2323  141.2822  159.1787 C.3     1  UNL1        0.0926
     19 C         141.7029  141.7027  160.5177 C.3     1  UNL1        0.0290
     20 C         141.9522  140.8479  161.7249 C.3     1  UNL1        0.0603
     21 C         142.7309  139.5727  161.5931 C.3     1  UNL1        0.0290
     22 C         143.2604  139.1522  160.2541 C.3     1  UNL1        0.0926
     23 C         142.8932  138.4539  156.9674 C.ar    1  UNL1        0.0406
     24 C         143.4227  138.0335  155.6285 C.ar    1  UNL1        0.1258
     25 N         142.7754  136.9009  154.8879 N.pl3   1  UNL1       -0.3428
     26 N         144.5995  138.7456  155.0300 N.ar    1  UNL1       -0.2097
     27 C         145.2467  139.8781  155.7705 C.ar    1  UNL1        0.2012
     28 N         144.7173  140.2986  157.1094 N.ar    1  UNL1       -0.2092
     29 C         143.5405  139.5865  157.7079 C.ar    1  UNL1        0.1320
     30 H         142.0031  136.4336  155.2807 H       1  UNL1        0.1437
     31 H         143.1229  136.6250  154.0091 H       1  UNL1        0.1437
     32 C         140.3227  138.1800  157.2265 C.3     1  UNL1        0.0052
     33 C         141.7165  137.7418  157.5659 C.3     1  UNL1        0.0320
     34 C         138.8348  141.5006  162.4362 C.3     1  UNL1        0.1245
     35 C         138.2401  142.7635  161.8875 C.3     1  UNL1        0.0969
     36 N         139.0025  144.0522  161.9768 N.3     1  UNL1       -0.2710
     37 C         139.9580  144.7835  161.0812 C.3     1  UNL1        0.0736
     38 C         140.0808  145.8746  162.1031 C.3     1  UNL1        0.0346
     39 C         139.1253  145.1433  162.9987 C.3     1  UNL1        0.0736
@<TRIPOS>BOND
     1    32    33    1
     2    33    23    1
     3    23    24   ar
     4    24    25    1
     5    24    26   ar
     6    26    27   ar
     7    27    28   ar
     8    28    29   ar
     9    29    17    1
    10    17    18    1
    11    18    19    1
    12    19    20    1
    13    20     1    1
    14     1     2   ar
    15     2     3   ar
    16     3     6    1
    17     6     7   ar
    18     7     8   ar
    19     8     9   ar
    20     9    10    1
    21     9    11   ar
    22    11    13    1
    23    13    14    1
    24    13    15    1
    25    13    16    1
    26    11    12   ar
    27     3     4   ar
    28     4     5   ar
    29     5    34    1
    30    34    35    1
    31    35    36    1
    32    36    37    1
    33    37    38    1
    34    38    39    1
    35    20    21    1
    36    21    22    1
    37    29    23   ar
    38    22    17    1
    39     5     1   ar
    40    39    36    1
    41    12     6   ar
    42    25    30    1
    43    25    31    1
@<TRIPOS>MOLECULE
*****
 39 43 0 0 0
SMALL
GASTEIGER

@<TRIPOS>ATOM
      1 C         142.2685  139.4939  162.7297 C.ar    1  UNL1        0.1200
      2 N         142.9640  140.0357  161.5162 N.ar    1  UNL1       -0.2309
      3 C         142.6598  139.1263  160.3628 C.ar    1  UNL1        0.0997
      4 C         141.7762  138.0223  160.8635 C.ar    1  UNL1        0.0961
      5 N         141.5344  138.2496  162.3263 N.ar    1  UNL1       -0.3123
      6 C         143.1526  139.2917  158.9557 C.ar    1  UNL1        0.0193
      7 C         143.9242  140.5190  158.5707 C.ar    1  UNL1        0.0038
      8 C         144.4170  140.6845  157.1637 C.ar    1  UNL1        0.0296
      9 C         144.1383  139.6225  156.1416 C.ar    1  UNL1        0.1440
     10 F         144.6310  139.7879  154.7346 F       1  UNL1       -0.2042
     11 C         143.3667  138.3951  156.5266 C.ar    1  UNL1        0.0988
     12 C         142.8739  138.2297  157.9337 C.ar    1  UNL1        0.0077
     13 C         143.0880  137.3331  155.5046 C.3     1  UNL1        0.4207
     14 F         142.8093  136.2712  154.4826 F       1  UNL1       -0.1658
     15 F         144.5251  136.9066  155.5559 F       1  UNL1       -0.1658
     16 F         141.6509  137.7597  155.4534 F       1  UNL1       -0.1658
     17 N         142.3670  141.2867  166.8559 N.pl3   1  UNL1       -0.2934
     18 C         141.9589  142.1273  165.6825 C.3     1  UNL1        0.0926
     19 C         141.9261  141.5297  164.3071 C.3     1  UNL1        0.0290
     20 C         142.3013  140.0915  164.1051 C.3     1  UNL1        0.0603
     21 C         142.7094  139.2509  165.2785 C.3     1  UNL1        0.0290
     22 C         142.7422  139.8486  166.6540 C.3     1  UNL1        0.0926
     23 C         141.1472  141.9410  169.0546 C.ar    1  UNL1        0.0406
     24 C         141.1800  142.5386  170.4300 C.ar    1  UNL1        0.1258
     25 N         139.9274  142.5952  171.2533 N.pl3   1  UNL1       -0.3428
     26 N         142.4655  143.0797  170.9821 N.ar    1  UNL1       -0.2097
     27 C         143.7181  143.0231  170.1589 C.ar    1  UNL1        0.2012
     28 N         143.6852  142.4254  168.7835 N.ar    1  UNL1       -0.2092
     29 C         142.3998  141.8844  168.2314 C.ar    1  UNL1        0.1320
     30 H         139.0837  142.2401  170.8909 H       1  UNL1        0.1437
     31 H         139.9490  142.9875  172.1560 H       1  UNL1        0.1437
     32 C         139.3501  140.0670  168.9622 C.3     1  UNL1        0.0052
     33 C         139.8617  141.3999  168.5025 C.3     1  UNL1        0.0320
     34 C         140.7042  137.3844  163.2275 C.3     1  UNL1        0.1245
     35 C         139.2480  137.6859  163.4239 C.3     1  UNL1        0.0969
     36 N         138.8260  139.0069  163.9954 N.3     1  UNL1       -0.2710
     37 C         138.8604  139.6326  165.3582 C.3     1  UNL1        0.0736
     38 C         138.2292  140.8752  164.8037 C.3     1  UNL1        0.0346
     39 C         138.1948  140.2495  163.4409 C.3     1  UNL1        0.0736
@<TRIPOS>BOND
     1    32    33    1
     2    33    23    1
     3    23    24   ar
     4    24    25    1
     5    24    26   ar
     6    26    27   ar
     7    27    28   ar
     8    28    29   ar
     9    29    17    1
    10    17    18    1
    11    18    19    1
    12    19    20    1
    13    20     1    1
    14     1     2   ar
    15     2     3   ar
    16     3     6    1
    17     6     7   ar
    18     7     8   ar
    19     8     9   ar
    20     9    10    1
    21     9    11   ar
    22    11    13    1
    23    13    14    1
    24    13    15    1
    25    13    16    1
    26    11    12   ar
    27     3     4   ar
    28     4     5   ar
    29     5    34    1
    30    34    35    1
    31    35    36    1
    32    36    37    1
    33    37    38    1
    34    38    39    1
    35    20    21    1
    36    21    22    1
    37    29    23   ar
    38    22    17    1
    39     5     1   ar
    40    39    36    1
    41    12     6   ar
    42    25    30    1
    43    25    31    1
@<TRIPOS>MOLECULE
*****
 39 43 0 0 0
SMALL
GASTEIGER

@<TRIPOS>ATOM
      1 C         141.4986  141.9374  163.0131 C.ar    1  UNL1        0.1200
      2 N         142.2945  142.0811  164.2763 N.ar    1  UNL1       -0.2309
      3 C         141.3313  142.2048  165.4195 C.ar    1  UNL1        0.0997
      4 C         139.9400  142.1374  164.8628 C.ar    1  UNL1        0.0961
      5 N         140.0434  141.9722  163.3756 N.ar    1  UNL1       -0.3123
      6 C         141.6954  142.3672  166.8656 C.ar    1  UNL1        0.0193
      7 C         143.1151  142.1709  167.3082 C.ar    1  UNL1        0.0038
      8 C         143.4793  142.3333  168.7541 C.ar    1  UNL1        0.0296
      9 C         142.4237  142.6922  169.7577 C.ar    1  UNL1        0.1440
     10 F         142.7877  142.8546  171.2037 F       1  UNL1       -0.2042
     11 C         141.0040  142.8885  169.3151 C.ar    1  UNL1        0.0988
     12 C         140.6398  142.7260  167.8691 C.ar    1  UNL1        0.0077
     13 C         139.9484  143.2473  170.3186 C.3     1  UNL1        0.4207
     14 F         138.8928  143.6061  171.3221 F       1  UNL1       -0.1658
     15 F         139.6211  141.7940  170.4940 F       1  UNL1       -0.1658
     16 F         140.2756  144.7006  170.1432 F       1  UNL1       -0.1658
     17 N         143.1808  141.4817  158.8643 N.pl3   1  UNL1       -0.2934
     18 C         143.6589  142.5944  159.7495 C.3     1  UNL1        0.0926
     19 C         143.0981  142.7463  161.1324 C.3     1  UNL1        0.0290
     20 C         142.0593  141.7855  161.6302 C.3     1  UNL1        0.0603
     21 C         141.5813  140.6728  160.7451 C.3     1  UNL1        0.0290
     22 C         142.1421  140.5209  159.3621 C.3     1  UNL1        0.0926
     23 C         143.1526  142.1096  156.3434 C.ar    1  UNL1        0.0406
     24 C         143.7134  141.9577  154.9605 C.ar    1  UNL1        0.1258
     25 N         143.1244  142.7375  153.8225 N.pl3   1  UNL1       -0.3428
     26 N         144.8632  141.0261  154.7156 N.ar    1  UNL1       -0.2097
     27 C         145.4523  140.2463  155.8536 C.ar    1  UNL1        0.2012
     28 N         144.8915  140.3982  157.2364 N.ar    1  UNL1       -0.2092
     29 C         143.7416  141.3298  157.4814 C.ar    1  UNL1        0.1320
     30 H         142.3698  143.3490  153.9832 H       1  UNL1        0.1437
     31 H         143.4925  142.6378  152.9148 H       1  UNL1        0.1437
     32 C         142.2557  144.5035  156.8065 C.3     1  UNL1        0.0052
     33 C         142.0028  143.0412  156.5883 C.3     1  UNL1        0.0320
     34 C         138.8935  141.8612  162.4188 C.3     1  UNL1        0.1245
     35 C         138.3615  143.0884  161.7400 C.3     1  UNL1        0.0969
     36 N         139.2978  144.0124  161.0192 N.3     1  UNL1       -0.2710
     37 C         140.0262  145.2742  161.3758 C.3     1  UNL1        0.0736
     38 C         140.6219  145.3192  159.9999 C.3     1  UNL1        0.0346
     39 C         139.8934  144.0574  159.6433 C.3     1  UNL1        0.0736
@<TRIPOS>BOND
     1    32    33    1
     2    33    23    1
     3    23    24   ar
     4    24    25    1
     5    24    26   ar
     6    26    27   ar
     7    27    28   ar
     8    28    29   ar
     9    29    17    1
    10    17    18    1
    11    18    19    1
    12    19    20    1
    13    20     1    1
    14     1     2   ar
    15     2     3   ar
    16     3     6    1
    17     6     7   ar
    18     7     8   ar
    19     8     9   ar
    20     9    10    1
    21     9    11   ar
    22    11    13    1
    23    13    14    1
    24    13    15    1
    25    13    16    1
    26    11    12   ar
    27     3     4   ar
    28     4     5   ar
    29     5    34    1
    30    34    35    1
    31    35    36    1
    32    36    37    1
    33    37    38    1
    34    38    39    1
    35    20    21    1
    36    21    22    1
    37    29    23   ar
    38    22    17    1
    39     5     1   ar
    40    39    36    1
    41    12     6   ar
    42    25    30    1
    43    25    31    1
@<TRIPOS>MOLECULE
*****
 39 43 0 0 0
SMALL
GASTEIGER

@<TRIPOS>ATOM
      1 C         141.0530  140.1731  162.2107 C.ar    1  UNL1        0.1200
      2 N         140.7881  139.0227  161.2853 N.ar    1  UNL1       -0.2309
      3 C         141.1238  139.4624  159.8911 C.ar    1  UNL1        0.0997
      4 C         141.5962  140.8847  159.9548 C.ar    1  UNL1        0.0961
      5 N         141.5524  141.3239  161.3883 N.ar    1  UNL1       -0.3123
      6 C         141.0076  138.6266  158.6509 C.ar    1  UNL1        0.0193
      7 C         139.7026  138.5543  157.9148 C.ar    1  UNL1        0.0038
      8 C         139.5863  137.7186  156.6748 C.ar    1  UNL1        0.0296
      9 C         140.7751  136.9551  156.1706 C.ar    1  UNL1        0.1440
     10 F         140.6589  136.1194  154.9305 F       1  UNL1       -0.2042
     11 C         142.0801  137.0275  156.9067 C.ar    1  UNL1        0.0988
     12 C         142.1963  137.8632  158.1469 C.ar    1  UNL1        0.0077
     13 C         143.2688  136.2641  156.4026 C.3     1  UNL1        0.4207
     14 F         144.4575  135.5007  155.8985 F       1  UNL1       -0.1658
     15 F         143.7080  137.4653  155.6190 F       1  UNL1       -0.1658
     16 F         142.8297  135.0628  157.1862 F       1  UNL1       -0.1658
     17 N         140.4543  140.1723  166.6707 N.pl3   1  UNL1       -0.2934
     18 C         139.8931  141.2872  165.8388 C.3     1  UNL1        0.0926
     19 C         140.0926  141.2875  164.3522 C.3     1  UNL1        0.0290
     20 C         140.8534  140.1728  163.6973 C.3     1  UNL1        0.0603
     21 C         141.4146  139.0579  164.5292 C.3     1  UNL1        0.0290
     22 C         141.2151  139.0576  166.0159 C.3     1  UNL1        0.0926
     23 C         141.4050  140.4826  169.0686 C.ar    1  UNL1        0.0406
     24 C         141.2054  140.4823  170.5552 C.ar    1  UNL1        0.1258
     25 N         142.3558  140.7929  171.4665 N.pl3   1  UNL1       -0.3428
     26 N         139.8555  140.1715  171.1306 N.ar    1  UNL1       -0.2097
     27 C         138.7052  139.8609  170.2195 C.ar    1  UNL1        0.2012
     28 N         138.9048  139.8612  168.7328 N.ar    1  UNL1       -0.2092
     29 C         140.2547  140.1720  168.1574 C.ar    1  UNL1        0.1320
     30 H         143.2418  140.9969  171.0888 H       1  UNL1        0.1437
     31 H         142.2247  140.7927  172.4422 H       1  UNL1        0.1437
     32 C         143.1092  142.2055  168.1321 C.3     1  UNL1        0.0052
     33 C         142.7549  140.7934  168.4931 C.3     1  UNL1        0.0320
     34 C         141.9400  142.6765  161.9083 C.3     1  UNL1        0.1245
     35 C         143.3286  142.9121  162.4240 C.3     1  UNL1        0.0969
     36 N         144.0397  141.8321  163.1843 N.3     1  UNL1       -0.2710
     37 C         144.2524  141.5212  164.6362 C.3     1  UNL1        0.0736
     38 C         145.0452  140.3049  164.2596 C.3     1  UNL1        0.0346
     39 C         144.8324  140.6158  162.8077 C.3     1  UNL1        0.0736
@<TRIPOS>BOND
     1    32    33    1
     2    33    23    1
     3    23    24   ar
     4    24    25    1
     5    24    26   ar
     6    26    27   ar
     7    27    28   ar
     8    28    29   ar
     9    29    17    1
    10    17    18    1
    11    18    19    1
    12    19    20    1
    13    20     1    1
    14     1     2   ar
    15     2     3   ar
    16     3     6    1
    17     6     7   ar
    18     7     8   ar
    19     8     9   ar
    20     9    10    1
    21     9    11   ar
    22    11    13    1
    23    13    14    1
    24    13    15    1
    25    13    16    1
    26    11    12   ar
    27     3     4   ar
    28     4     5   ar
    29     5    34    1
    30    34    35    1
    31    35    36    1
    32    36    37    1
    33    37    38    1
    34    38    39    1
    35    20    21    1
    36    21    22    1
    37    29    23   ar
    38    22    17    1
    39     5     1   ar
    40    39    36    1
    41    12     6   ar
    42    25    30    1
    43    25    31    1
@<TRIPOS>MOLECULE
*****
 39 43 0 0 0
SMALL
GASTEIGER

@<TRIPOS>ATOM
      1 C         141.6937  140.6484  163.4591 C.ar    1  UNL1        0.1200
      2 N         141.4169  141.1903  164.8301 N.ar    1  UNL1       -0.2309
      3 C         141.9734  140.2226  165.8320 C.ar    1  UNL1        0.0997
      4 C         142.5942  139.0826  165.0802 C.ar    1  UNL1        0.0961
      5 N         142.4213  139.3458  163.6137 N.ar    1  UNL1       -0.3123
      6 C         141.9188  140.3692  167.3239 C.ar    1  UNL1        0.0193
      7 C         142.5948  139.3584  168.2021 C.ar    1  UNL1        0.0038
      8 C         142.5402  139.5048  169.6938 C.ar    1  UNL1        0.0296
      9 C         141.8095  140.6623  170.3076 C.ar    1  UNL1        0.1440
     10 F         141.7549  140.8089  171.7993 F       1  UNL1       -0.2042
     11 C         141.1335  141.6731  169.4294 C.ar    1  UNL1        0.0988
     12 C         141.1881  141.5266  167.9375 C.ar    1  UNL1        0.0077
     13 C         140.4029  142.8305  170.0430 C.3     1  UNL1        0.4207
     14 F         139.6722  143.9879  170.6567 F       1  UNL1       -0.1658
     15 F         139.1882  141.9688  170.2220 F       1  UNL1       -0.1658
     16 F         141.6175  143.6922  169.8641 F       1  UNL1       -0.1658
     17 N         140.5432  142.5897  159.5658 N.pl3   1  UNL1       -0.2934
     18 C         139.4807  142.1771  160.5409 C.3     1  UNL1        0.0926
     19 C         139.8642  141.5301  161.8387 C.3     1  UNL1        0.0290
     20 C         141.3102  141.2955  162.1613 C.3     1  UNL1        0.0603
     21 C         142.3727  141.7081  161.1862 C.3     1  UNL1        0.0290
     22 C         141.9892  142.3552  159.8884 C.3     1  UNL1        0.0926
     23 C         140.3622  144.7106  158.0761 C.ar    1  UNL1        0.0406
     24 C         139.9786  145.3577  156.7784 C.ar    1  UNL1        0.1258
     25 N         140.1811  146.8315  156.5865 N.pl3   1  UNL1       -0.3428
     26 N         139.3926  144.5309  155.6725 N.ar    1  UNL1       -0.2097
     27 C         139.1901  143.0571  155.8643 C.ar    1  UNL1        0.2012
     28 N         139.5737  142.4100  157.1621 N.ar    1  UNL1       -0.2092
     29 C         140.1597  143.2368  158.2680 C.ar    1  UNL1        0.1320
     30 H         140.5657  147.3742  157.3123 H       1  UNL1        0.1437
     31 H         139.9294  147.2562  155.7347 H       1  UNL1        0.1437
     32 C         140.1618  145.7774  160.4366 C.3     1  UNL1        0.0052
     33 C         140.9482  145.5374  159.1821 C.3     1  UNL1        0.0320
     34 C         142.8931  138.4616  162.4977 C.3     1  UNL1        0.1245
     35 C         141.9323  137.5279  161.8231 C.3     1  UNL1        0.0969
     36 N         140.4544  137.7313  161.9788 N.3     1  UNL1       -0.2710
     37 C         139.3331  138.1108  161.0575 C.3     1  UNL1        0.0736
     38 C         138.3643  138.0190  162.1989 C.3     1  UNL1        0.0346
     39 C         139.4855  137.6395  163.1201 C.3     1  UNL1        0.0736
@<TRIPOS>BOND
     1    32    33    1
     2    33    23    1
     3    23    24   ar
     4    24    25    1
     5    24    26   ar
     6    26    27   ar
     7    27    28   ar
     8    28    29   ar
     9    29    17    1
    10    17    18    1
    11    18    19    1
    12    19    20    1
    13    20     1    1
    14     1     2   ar
    15     2     3   ar
    16     3     6    1
    17     6     7   ar
    18     7     8   ar
    19     8     9   ar
    20     9    10    1
    21     9    11   ar
    22    11    13    1
    23    13    14    1
    24    13    15    1
    25    13    16    1
    26    11    12   ar
    27     3     4   ar
    28     4     5   ar
    29     5    34    1
    30    34    35    1
    31    35    36    1
    32    36    37    1
    33    37    38    1
    34    38    39    1
    35    20    21    1
    36    21    22    1
    37    29    23   ar
    38    22    17    1
    39     5     1   ar
    40    39    36    1
    41    12     6   ar
    42    25    30    1
    43    25    31    1
