@<TRIPOS>MOLECULE
*****
 30 33 0 0 0
SMALL
GASTEIGER

@<TRIPOS>ATOM
      1 C         138.6493  139.7537  165.4791 C.3     1  UNL1        0.1548
      2 C         139.3427  140.4676  166.6014 C.ar    1  UNL1        0.0028
      3 C         139.3565  139.8683  167.9764 C.ar    1  UNL1       -0.0023
      4 C         140.0499  140.5822  169.0987 C.ar    1  UNL1       -0.0003
      5 C         140.7294  141.8953  168.8460 C.ar    1  UNL1       -0.0000
      6 C         140.7156  142.4946  167.4710 C.ar    1  UNL1       -0.0003
      7 C         140.0222  141.7807  166.3486 C.ar    1  UNL1       -0.0023
      8 N         137.5093  140.4135  164.7614 N.pl3   1  UNL1       -0.3245
      9 H         136.5904  140.3140  165.1006 H       1  UNL1        0.1474
     10 C         138.1763  143.5257  162.3910 C.ar    1  UNL1        0.1430
     11 C         137.9164  142.7143  163.6255 C.ar    1  UNL1        0.0514
     12 C         137.7691  141.2248  163.5268 C.ar    1  UNL1        0.0512
     13 C         137.8817  140.5467  162.1936 C.ar    1  UNL1        0.0514
     14 C         138.1415  141.3581  160.9591 C.ar    1  UNL1        0.1430
     15 C         138.2888  142.8476  161.0578 C.ar    1  UNL1        0.0738
     16 C         139.5595  145.6831  161.9639 C.3     1  UNL1        0.2525
     17 O         138.3236  145.0152  162.4896 O.3     1  UNL1       -0.4713
     18 O         138.2541  140.6801  159.6258 O.3     1  UNL1       -0.4713
     19 C         139.0939  139.4457  159.4806 C.3     1  UNL1        0.2525
     20 C         139.0959  138.3801  165.0744 C.2     1  UNL1        0.1964
     21 O         138.4932  137.1724  165.7288 O.2     1  UNL1       -0.2892
     22 C         140.1452  138.2142  164.0154 C.2     1  UNL1        0.0569
     23 C         139.9378  137.6190  162.6543 C.2     1  UNL1        0.1014
     24 N         141.2506  137.6514  161.9294 N.2     1  UNL1       -0.2477
     25 C         142.2693  138.2666  162.8424 C.2     1  UNL1        0.0635
     26 C         143.7308  138.5550  162.6664 C.3     1  UNL1        0.0717
     27 C         144.5090  139.1913  163.7797 C.2     1  UNL1       -0.0198
     28 C         143.8258  139.5391  165.0690 C.2     1  UNL1       -0.0041
     29 C         142.3644  139.2507  165.2450 C.2     1  UNL1        0.0010
     30 C         141.5862  138.6145  164.1317 C.2     1  UNL1        0.0182
@<TRIPOS>BOND
     1    16    17    1
     2    17    10    1
     3    10    11   ar
     4    11    12   ar
     5    12     8    1
     6     8     1    1
     7     1    20    1
     8    20    21    2
     9    20    22    1
    10    22    23    2
    11    23    24    1
    12    24    25    2
    13    25    26    1
    14    26    27    1
    15    27    28    2
    16    28    29    1
    17    29    30    2
    18     1     2    1
    19     2     3   ar
    20     3     4   ar
    21     4     5   ar
    22     5     6   ar
    23     6     7   ar
    24    12    13   ar
    25    13    14   ar
    26    14    18    1
    27    18    19    1
    28    14    15   ar
    29    15    10   ar
    30    30    22    1
    31     7     2   ar
    32    30    25    1
    33     8     9    1
@<TRIPOS>MOLECULE
*****
 30 33 0 0 0
SMALL
GASTEIGER

@<TRIPOS>ATOM
      1 C         138.6725  139.7580  165.4197 C.3     1  UNL1        0.1548
      2 C         139.3532  140.4979  166.5329 C.ar    1  UNL1        0.0028
      3 C         139.4306  139.8883  167.9013 C.ar    1  UNL1       -0.0023
      4 C         140.1113  140.6282  169.0145 C.ar    1  UNL1       -0.0003
      5 C         140.7146  141.9775  168.7593 C.ar    1  UNL1       -0.0000
      6 C         140.6372  142.5871  167.3909 C.ar    1  UNL1       -0.0003
      7 C         139.9565  141.8472  166.2777 C.ar    1  UNL1       -0.0023
      8 N         137.5335  140.3964  164.6813 N.pl3   1  UNL1       -0.3245
      9 H         136.6217  140.3524  165.0499 H       1  UNL1        0.1474
     10 C         138.0989  141.0240  160.8037 C.ar    1  UNL1        0.1430
     11 C         137.8487  140.3187  162.1037 C.ar    1  UNL1        0.0514
     12 C         137.7838  141.1018  163.3814 C.ar    1  UNL1        0.0512
     13 C         137.9691  142.5901  163.3592 C.ar    1  UNL1        0.0514
     14 C         138.2194  143.2954  162.0592 C.ar    1  UNL1        0.1430
     15 C         138.2843  142.5123  160.7815 C.ar    1  UNL1        0.0738
     16 C         139.3651  139.3946  159.2251 C.3     1  UNL1        0.2525
     17 O         138.1638  140.2410  159.5259 O.3     1  UNL1       -0.4713
     18 O         138.4047  144.7837  162.0370 O.3     1  UNL1       -0.4713
     19 C         139.6673  145.3904  162.5734 C.3     1  UNL1        0.2525
     20 C         139.1307  138.3797  165.0448 C.2     1  UNL1        0.1964
     21 O         138.5229  137.1806  165.7100 O.2     1  UNL1       -0.2892
     22 C         140.1968  138.2008  164.0049 C.2     1  UNL1        0.0569
     23 C         140.0210  137.5501  162.6649 C.2     1  UNL1        0.1014
     24 N         141.3414  137.5883  161.9542 N.2     1  UNL1       -0.2477
     25 C         142.3333  138.2626  162.8551 C.2     1  UNL1        0.0635
     26 C         143.7892  138.5807  162.6850 C.3     1  UNL1        0.0717
     27 C         144.5378  139.2775  163.7823 C.2     1  UNL1       -0.0198
     28 C         143.8304  139.6560  165.0497 C.2     1  UNL1       -0.0041
     29 C         142.3744  139.3379  165.2198 C.2     1  UNL1        0.0010
     30 C         141.6259  138.6411  164.1224 C.2     1  UNL1        0.0182
@<TRIPOS>BOND
     1    16    17    1
     2    17    10    1
     3    10    11   ar
     4    11    12   ar
     5    12     8    1
     6     8     1    1
     7     1    20    1
     8    20    21    2
     9    20    22    1
    10    22    23    2
    11    23    24    1
    12    24    25    2
    13    25    26    1
    14    26    27    1
    15    27    28    2
    16    28    29    1
    17    29    30    2
    18     1     2    1
    19     2     3   ar
    20     3     4   ar
    21     4     5   ar
    22     5     6   ar
    23     6     7   ar
    24    12    13   ar
    25    13    14   ar
    26    14    18    1
    27    18    19    1
    28    14    15   ar
    29    15    10   ar
    30    30    22    1
    31     7     2   ar
    32    30    25    1
    33     8     9    1
@<TRIPOS>MOLECULE
*****
 30 33 0 0 0
SMALL
GASTEIGER

@<TRIPOS>ATOM
      1 C         142.1094  140.9746  166.8086 C.3     1  UNL1        0.1548
      2 C         141.2125  141.2758  167.9726 C.ar    1  UNL1        0.0028
      3 C         141.3277  142.5892  168.6879 C.ar    1  UNL1       -0.0023
      4 C         140.4308  142.8904  169.8519 C.ar    1  UNL1       -0.0003
      5 C         139.4188  141.8782  170.3005 C.ar    1  UNL1       -0.0000
      6 C         139.3037  140.5648  169.5852 C.ar    1  UNL1       -0.0003
      7 C         140.2006  140.2636  168.4212 C.ar    1  UNL1       -0.0023
      8 N         142.4876  139.5561  166.5006 N.pl3   1  UNL1       -0.3245
      9 H         142.9907  139.0264  167.1606 H       1  UNL1        0.1474
     10 C         140.2806  137.9665  163.6107 C.ar    1  UNL1        0.1430
     11 C         140.6689  138.5779  164.9242 C.ar    1  UNL1        0.0514
     12 C         142.0994  138.9447  165.1871 C.ar    1  UNL1        0.0512
     13 C         143.1417  138.6999  164.1365 C.ar    1  UNL1        0.0514
     14 C         142.7534  138.0885  162.8229 C.ar    1  UNL1        0.1430
     15 C         141.3229  137.7218  162.5601 C.ar    1  UNL1        0.0738
     16 C         138.1954  138.0082  162.0615 C.3     1  UNL1        0.2525
     17 O         138.8501  137.5997  163.3477 O.3     1  UNL1       -0.4713
     18 O         143.7956  137.8438  161.7723 O.3     1  UNL1       -0.4713
     19 C         144.0707  138.8879  160.7311 C.3     1  UNL1        0.2525
     20 C         142.6281  142.0919  165.9526 C.2     1  UNL1        0.1964
     21 O         143.8340  142.8712  166.3864 O.2     1  UNL1       -0.2892
     22 C         141.9408  142.4297  164.6628 C.2     1  UNL1        0.0569
     23 C         142.4527  142.1278  163.2856 C.2     1  UNL1        0.1014
     24 N         141.4491  142.6403  162.2955 N.2     1  UNL1       -0.2477
     25 C         140.3171  143.2590  163.0608 C.2     1  UNL1        0.0635
     26 C         139.0489  143.9241  162.6145 C.3     1  UNL1        0.0717
     27 C         138.0846  144.4590  163.6312 C.2     1  UNL1       -0.0198
     28 C         138.3885  144.3289  165.0943 C.2     1  UNL1       -0.0041
     29 C         139.6567  143.6638  165.5407 C.2     1  UNL1        0.0010
     30 C         140.6210  143.1289  164.5239 C.2     1  UNL1        0.0182
@<TRIPOS>BOND
     1    16    17    1
     2    17    10    1
     3    10    11   ar
     4    11    12   ar
     5    12     8    1
     6     8     1    1
     7     1    20    1
     8    20    21    2
     9    20    22    1
    10    22    23    2
    11    23    24    1
    12    24    25    2
    13    25    26    1
    14    26    27    1
    15    27    28    2
    16    28    29    1
    17    29    30    2
    18     1     2    1
    19     2     3   ar
    20     3     4   ar
    21     4     5   ar
    22     5     6   ar
    23     6     7   ar
    24    12    13   ar
    25    13    14   ar
    26    14    18    1
    27    18    19    1
    28    14    15   ar
    29    15    10   ar
    30    30    22    1
    31     7     2   ar
    32    30    25    1
    33     8     9    1
@<TRIPOS>MOLECULE
*****
 30 33 0 0 0
SMALL
GASTEIGER

@<TRIPOS>ATOM
      1 C         141.1630  140.3814  167.2038 C.3     1  UNL1        0.1548
      2 C         141.6391  141.3252  168.2680 C.ar    1  UNL1        0.0028
      3 C         143.0297  141.1978  168.8160 C.ar    1  UNL1       -0.0023
      4 C         143.5058  142.1415  169.8802 C.ar    1  UNL1       -0.0003
      5 C         142.5915  143.2126  170.3964 C.ar    1  UNL1       -0.0000
      6 C         141.2009  143.3400  169.8485 C.ar    1  UNL1       -0.0003
      7 C         140.7248  142.3963  168.7843 C.ar    1  UNL1       -0.0023
      8 N         142.1562  139.6642  166.3383 N.pl3   1  UNL1       -0.3245
      9 H         142.4024  138.7325  166.5399 H       1  UNL1        0.1474
     10 C         143.8076  140.2849  162.7835 C.ar    1  UNL1        0.1430
     11 C         143.1895  139.5828  163.9560 C.ar    1  UNL1        0.0514
     12 C         142.7743  140.3664  165.1658 C.ar    1  UNL1        0.0512
     13 C         142.9773  141.8521  165.2031 C.ar    1  UNL1        0.0514
     14 C         143.5954  142.5542  164.0305 C.ar    1  UNL1        0.1430
     15 C         144.0105  141.7706  162.8207 C.ar    1  UNL1        0.0738
     16 C         143.8961  138.0405  161.4777 C.3     1  UNL1        0.2525
     17 O         144.2228  139.5013  161.5736 O.3     1  UNL1       -0.4713
     18 O         143.7983  144.0399  164.0677 O.3     1  UNL1       -0.4713
     19 C         142.6451  144.9614  163.8014 C.3     1  UNL1        0.2525
     20 C         139.6935  140.1549  167.0051 C.2     1  UNL1        0.1964
     21 O         138.8798  139.5150  168.0905 O.2     1  UNL1       -0.2892
     22 C         139.0378  140.5683  165.7209 C.2     1  UNL1        0.0569
     23 C         138.3564  139.6554  164.7450 C.2     1  UNL1        0.1014
     24 N         137.8460  140.4902  163.6081 N.2     1  UNL1       -0.2477
     25 C         138.2119  141.9190  163.8813 C.2     1  UNL1        0.0635
     26 C         137.9695  143.1823  163.1098 C.3     1  UNL1        0.0717
     27 C         138.4637  144.4939  163.6440 C.2     1  UNL1       -0.0198
     28 C         139.2003  144.5422  164.9498 C.2     1  UNL1       -0.0041
     29 C         139.4427  143.2789  165.7213 C.2     1  UNL1        0.0010
     30 C         138.9485  141.9673  165.1871 C.2     1  UNL1        0.0182
@<TRIPOS>BOND
     1    16    17    1
     2    17    10    1
     3    10    11   ar
     4    11    12   ar
     5    12     8    1
     6     8     1    1
     7     1    20    1
     8    20    21    2
     9    20    22    1
    10    22    23    2
    11    23    24    1
    12    24    25    2
    13    25    26    1
    14    26    27    1
    15    27    28    2
    16    28    29    1
    17    29    30    2
    18     1     2    1
    19     2     3   ar
    20     3     4   ar
    21     4     5   ar
    22     5     6   ar
    23     6     7   ar
    24    12    13   ar
    25    13    14   ar
    26    14    18    1
    27    18    19    1
    28    14    15   ar
    29    15    10   ar
    30    30    22    1
    31     7     2   ar
    32    30    25    1
    33     8     9    1
@<TRIPOS>MOLECULE
*****
 30 33 0 0 0
SMALL
GASTEIGER

@<TRIPOS>ATOM
      1 C         141.1477  140.3916  167.1757 C.3     1  UNL1        0.1548
      2 C         141.6359  141.3292  168.2399 C.ar    1  UNL1        0.0028
      3 C         140.7280  142.3983  168.7716 C.ar    1  UNL1       -0.0023
      4 C         141.2162  143.3359  169.8358 C.ar    1  UNL1       -0.0003
      5 C         142.6123  143.2044  170.3683 C.ar    1  UNL1       -0.0000
      6 C         143.5202  142.1353  169.8366 C.ar    1  UNL1       -0.0003
      7 C         143.0320  141.1977  168.7724 C.ar    1  UNL1       -0.0023
      8 N         142.1314  139.6686  166.3043 N.pl3   1  UNL1       -0.3245
      9 H         142.3647  138.7318  166.4976 H       1  UNL1        0.1474
     10 C         143.5461  142.5685  163.9937 C.ar    1  UNL1        0.1430
     11 C         142.9177  141.8642  165.1595 C.ar    1  UNL1        0.0514
     12 C         142.7599  140.3727  165.1385 C.ar    1  UNL1        0.0512
     13 C         143.2304  139.5854  163.9516 C.ar    1  UNL1        0.0514
     14 C         143.8588  140.2896  162.7858 C.ar    1  UNL1        0.1430
     15 C         144.0167  141.7812  162.8068 C.ar    1  UNL1        0.0738
     16 C         142.5042  144.9437  163.8424 C.3     1  UNL1        0.2525
     17 O         143.7040  144.0600  164.0147 O.3     1  UNL1       -0.4713
     18 O         144.3294  139.5023  161.5989 O.3     1  UNL1       -0.4713
     19 C         143.9197  138.0682  161.4399 C.3     1  UNL1        0.2525
     20 C         139.6756  140.1770  166.9830 C.2     1  UNL1        0.1964
     21 O         138.8553  139.5728  168.0838 O.2     1  UNL1       -0.2892
     22 C         139.0239  140.5666  165.6893 C.2     1  UNL1        0.0569
     23 C         138.3844  139.6304  164.7072 C.2     1  UNL1        0.1014
     24 N         137.8626  140.4461  163.5616 N.2     1  UNL1       -0.2477
     25 C         138.1797  141.8863  163.8356 C.2     1  UNL1        0.0635
     26 C         137.9076  143.1396  163.0576 C.3     1  UNL1        0.0717
     27 C         138.3533  144.4673  163.5947 C.2     1  UNL1       -0.0198
     28 C         139.0710  144.5418  164.9097 C.2     1  UNL1       -0.0041
     29 C         139.3431  143.2886  165.6877 C.2     1  UNL1        0.0010
     30 C         138.8975  141.9608  165.1506 C.2     1  UNL1        0.0182
@<TRIPOS>BOND
     1    16    17    1
     2    17    10    1
     3    10    11   ar
     4    11    12   ar
     5    12     8    1
     6     8     1    1
     7     1    20    1
     8    20    21    2
     9    20    22    1
    10    22    23    2
    11    23    24    1
    12    24    25    2
    13    25    26    1
    14    26    27    1
    15    27    28    2
    16    28    29    1
    17    29    30    2
    18     1     2    1
    19     2     3   ar
    20     3     4   ar
    21     4     5   ar
    22     5     6   ar
    23     6     7   ar
    24    12    13   ar
    25    13    14   ar
    26    14    18    1
    27    18    19    1
    28    14    15   ar
    29    15    10   ar
    30    30    22    1
    31     7     2   ar
    32    30    25    1
    33     8     9    1
@<TRIPOS>MOLECULE
*****
 30 33 0 0 0
SMALL
GASTEIGER

@<TRIPOS>ATOM
      1 C         139.2453  139.8682  165.8870 C.3     1  UNL1        0.1548
      2 C         139.6250  140.6286  167.1229 C.ar    1  UNL1        0.0028
      3 C         140.2319  141.9953  167.0059 C.ar    1  UNL1       -0.0023
      4 C         140.6116  142.7557  168.2419 C.ar    1  UNL1       -0.0003
      5 C         140.3844  142.1493  169.5949 C.ar    1  UNL1       -0.0000
      6 C         139.7775  140.7826  169.7119 C.ar    1  UNL1       -0.0003
      7 C         139.3978  140.0222  168.4759 C.ar    1  UNL1       -0.0023
      8 N         137.9588  140.1787  165.1810 N.pl3   1  UNL1       -0.3245
      9 H         137.1025  139.8804  165.5644 H       1  UNL1        0.1474
     10 C         137.9986  143.2085  162.6181 C.ar    1  UNL1        0.1430
     11 C         137.9806  142.4435  163.9083 C.ar    1  UNL1        0.0514
     12 C         137.9768  140.9436  163.8908 C.ar    1  UNL1        0.0512
     13 C         137.9911  140.2087  162.5833 C.ar    1  UNL1        0.0514
     14 C         138.0091  140.9737  161.2932 C.ar    1  UNL1        0.1430
     15 C         138.0129  142.4736  161.3106 C.ar    1  UNL1        0.0738
     16 C         139.2581  145.4591  162.3044 C.3     1  UNL1        0.2525
     17 O         138.0024  144.7084  162.6355 O.3     1  UNL1       -0.4713
     18 O         138.0234  140.2388  159.9856 O.3     1  UNL1       -0.4713
     19 C         138.3017  140.9800  158.7116 C.3     1  UNL1        0.2525
     20 C         140.1522  138.7973  165.3569 C.2     1  UNL1        0.1964
     21 O         139.5957  137.4494  165.0058 O.2     1  UNL1       -0.2892
     22 C         141.6155  139.0745  165.1780 C.2     1  UNL1        0.0569
     23 C         142.7420  138.2827  165.7730 C.2     1  UNL1        0.1014
     24 N         144.0319  138.9110  165.3354 N.2     1  UNL1       -0.2477
     25 C         143.7025  140.0911  164.4700 C.2     1  UNL1        0.0635
     26 C         144.5696  141.0868  163.7581 C.3     1  UNL1        0.0717
     27 C         143.9432  142.1834  162.9488 C.2     1  UNL1       -0.0198
     28 C         142.4497  142.2844  162.8515 C.2     1  UNL1       -0.0041
     29 C         141.5827  141.2888  163.5635 C.2     1  UNL1        0.0010
     30 C         142.2091  140.1922  164.3728 C.2     1  UNL1        0.0182
@<TRIPOS>BOND
     1    16    17    1
     2    17    10    1
     3    10    11   ar
     4    11    12   ar
     5    12     8    1
     6     8     1    1
     7     1    20    1
     8    20    21    2
     9    20    22    1
    10    22    23    2
    11    23    24    1
    12    24    25    2
    13    25    26    1
    14    26    27    1
    15    27    28    2
    16    28    29    1
    17    29    30    2
    18     1     2    1
    19     2     3   ar
    20     3     4   ar
    21     4     5   ar
    22     5     6   ar
    23     6     7   ar
    24    12    13   ar
    25    13    14   ar
    26    14    18    1
    27    18    19    1
    28    14    15   ar
    29    15    10   ar
    30    30    22    1
    31     7     2   ar
    32    30    25    1
    33     8     9    1
@<TRIPOS>MOLECULE
*****
 30 33 0 0 0
SMALL
GASTEIGER

@<TRIPOS>ATOM
      1 C         142.4988  141.0361  167.1149 C.3     1  UNL1        0.1548
      2 C         141.5013  141.3525  168.1896 C.ar    1  UNL1        0.0028
      3 C         141.6084  142.6362  168.9580 C.ar    1  UNL1       -0.0023
      4 C         140.6109  142.9526  170.0327 C.ar    1  UNL1       -0.0003
      5 C         139.5063  141.9851  170.3388 C.ar    1  UNL1       -0.0000
      6 C         139.3991  140.7014  169.5704 C.ar    1  UNL1       -0.0003
      7 C         140.3966  140.3850  168.4958 C.ar    1  UNL1       -0.0023
      8 N         143.1924  142.1477  166.3847 N.pl3   1  UNL1       -0.3245
      9 H         144.0998  142.4210  166.6516 H       1  UNL1        0.1474
     10 C         140.3755  143.9400  164.2395 C.ar    1  UNL1        0.1430
     11 C         141.0643  143.2448  165.3763 C.ar    1  UNL1        0.0514
     12 C         142.5037  142.8428  165.2479 C.ar    1  UNL1        0.0512
     13 C         143.2543  143.1359  163.9827 C.ar    1  UNL1        0.0514
     14 C         142.5655  143.8311  162.8460 C.ar    1  UNL1        0.1430
     15 C         141.1261  144.2331  162.9743 C.ar    1  UNL1        0.0738
     16 C         137.9383  143.8957  163.3406 C.3     1  UNL1        0.2525
     17 O         138.9360  144.3420  164.3678 O.3     1  UNL1       -0.4713
     18 O         143.3161  144.1242  161.5808 O.3     1  UNL1       -0.4713
     19 C         143.6085  143.0196  160.6091 C.3     1  UNL1        0.2525
     20 C         142.8027  139.6081  166.7705 C.2     1  UNL1        0.1964
     21 O         143.3047  138.6718  167.8293 O.2     1  UNL1       -0.2892
     22 C         142.6045  139.1166  165.3672 C.2     1  UNL1        0.0569
     23 C         143.6669  139.0035  164.3143 C.2     1  UNL1        0.1014
     24 N         143.0280  138.4689  163.0669 N.2     1  UNL1       -0.2477
     25 C         141.5709  138.2515  163.3489 C.2     1  UNL1        0.0635
     26 C         140.4486  137.7407  162.4947 C.3     1  UNL1        0.0717
     27 C         139.0646  137.6303  163.0623 C.2     1  UNL1       -0.0198
     28 C         138.8028  138.0306  164.4840 C.2     1  UNL1       -0.0041
     29 C         139.9251  138.5413  165.3381 C.2     1  UNL1        0.0010
     30 C         141.3091  138.6518  164.7706 C.2     1  UNL1        0.0182
@<TRIPOS>BOND
     1    16    17    1
     2    17    10    1
     3    10    11   ar
     4    11    12   ar
     5    12     8    1
     6     8     1    1
     7     1    20    1
     8    20    21    2
     9    20    22    1
    10    22    23    2
    11    23    24    1
    12    24    25    2
    13    25    26    1
    14    26    27    1
    15    27    28    2
    16    28    29    1
    17    29    30    2
    18     1     2    1
    19     2     3   ar
    20     3     4   ar
    21     4     5   ar
    22     5     6   ar
    23     6     7   ar
    24    12    13   ar
    25    13    14   ar
    26    14    18    1
    27    18    19    1
    28    14    15   ar
    29    15    10   ar
    30    30    22    1
    31     7     2   ar
    32    30    25    1
    33     8     9    1
@<TRIPOS>MOLECULE
*****
 30 33 0 0 0
SMALL
GASTEIGER

@<TRIPOS>ATOM
      1 C         142.4957  141.0250  167.2156 C.3     1  UNL1        0.1548
      2 C         141.4691  141.3432  168.2620 C.ar    1  UNL1        0.0028
      3 C         140.4021  140.3428  168.5946 C.ar    1  UNL1       -0.0023
      4 C         139.3756  140.6610  169.6410 C.ar    1  UNL1       -0.0003
      5 C         139.4161  141.9796  170.3547 C.ar    1  UNL1       -0.0000
      6 C         140.4831  142.9801  170.0221 C.ar    1  UNL1       -0.0003
      7 C         141.5096  142.6619  168.9757 C.ar    1  UNL1       -0.0023
      8 N         143.2105  142.1353  166.5040 N.pl3   1  UNL1       -0.3245
      9 H         144.0726  142.4648  166.8466 H       1  UNL1        0.1474
     10 C         142.8741  143.6164  162.8376 C.ar    1  UNL1        0.1430
     11 C         143.4728  143.0081  164.0711 C.ar    1  UNL1        0.0514
     12 C         142.6117  142.7436  165.2706 C.ar    1  UNL1        0.0512
     13 C         141.1521  143.0873  165.2365 C.ar    1  UNL1        0.0514
     14 C         140.5534  143.6956  164.0030 C.ar    1  UNL1        0.1430
     15 C         141.4145  143.9601  162.8035 C.ar    1  UNL1        0.0738
     16 C         143.6554  142.9771  160.4437 C.3     1  UNL1        0.2525
     17 O         143.7351  143.8809  161.6381 O.3     1  UNL1       -0.4713
     18 O         139.0938  144.0393  163.9689 O.3     1  UNL1       -0.4713
     19 C         138.0840  143.0798  164.5254 C.3     1  UNL1        0.2525
     20 C         142.8074  139.5964  166.8807 C.2     1  UNL1        0.1964
     21 O         143.3014  138.6664  167.9489 O.2     1  UNL1       -0.2892
     22 C         142.6252  139.0980  165.4777 C.2     1  UNL1        0.0569
     23 C         143.7013  138.9709  164.4405 C.2     1  UNL1        0.1014
     24 N         143.0761  138.4336  163.1874 N.2     1  UNL1       -0.2477
     25 C         141.6136  138.2285  163.4502 C.2     1  UNL1        0.0635
     26 C         140.4996  137.7209  162.5834 C.3     1  UNL1        0.0717
     27 C         139.1070  137.6240  163.1321 C.2     1  UNL1       -0.0198
     28 C         138.8283  138.0346  164.5477 C.2     1  UNL1       -0.0041
     29 C         139.9423  138.5422  165.4144 C.2     1  UNL1        0.0010
     30 C         141.3349  138.6391  164.8657 C.2     1  UNL1        0.0182
@<TRIPOS>BOND
     1    16    17    1
     2    17    10    1
     3    10    11   ar
     4    11    12   ar
     5    12     8    1
     6     8     1    1
     7     1    20    1
     8    20    21    2
     9    20    22    1
    10    22    23    2
    11    23    24    1
    12    24    25    2
    13    25    26    1
    14    26    27    1
    15    27    28    2
    16    28    29    1
    17    29    30    2
    18     1     2    1
    19     2     3   ar
    20     3     4   ar
    21     4     5   ar
    22     5     6   ar
    23     6     7   ar
    24    12    13   ar
    25    13    14   ar
    26    14    18    1
    27    18    19    1
    28    14    15   ar
    29    15    10   ar
    30    30    22    1
    31     7     2   ar
    32    30    25    1
    33     8     9    1
@<TRIPOS>MOLECULE
*****
 30 33 0 0 0
SMALL
GASTEIGER

@<TRIPOS>ATOM
      1 C         139.8900  139.8894  166.4455 C.3     1  UNL1        0.1548
      2 C         139.9204  140.7607  167.6661 C.ar    1  UNL1        0.0028
      3 C         139.3472  140.2607  168.9590 C.ar    1  UNL1       -0.0023
      4 C         139.3776  141.1320  170.1796 C.ar    1  UNL1       -0.0003
      5 C         139.9812  142.5032  170.1073 C.ar    1  UNL1       -0.0000
      6 C         140.5544  143.0032  168.8145 C.ar    1  UNL1       -0.0003
      7 C         140.5240  142.1319  167.5938 C.ar    1  UNL1       -0.0023
      8 N         138.6061  139.6948  165.6947 N.pl3   1  UNL1       -0.3245
      9 H         137.9552  139.0217  165.9989 H       1  UNL1        0.1474
     10 C         137.6885  140.6904  161.9643 C.ar    1  UNL1        0.1430
     11 C         137.9808  139.8596  163.1785 C.ar    1  UNL1        0.0514
     12 C         138.3138  140.5256  164.4806 C.ar    1  UNL1        0.0512
     13 C         138.3546  142.0225  164.5685 C.ar    1  UNL1        0.0514
     14 C         138.0623  142.8533  163.3543 C.ar    1  UNL1        0.1430
     15 C         137.7293  142.1873  162.0522 C.ar    1  UNL1        0.0738
     16 C         138.1378  140.3591  159.4269 C.3     1  UNL1        0.2525
     17 O         137.3554  140.0244  160.6621 O.3     1  UNL1       -0.4713
     18 O         138.1031  144.3502  163.4422 O.3     1  UNL1       -0.4713
     19 C         139.2835  145.1014  162.9016 C.3     1  UNL1        0.2525
     20 C         141.1436  139.2127  165.9756 C.2     1  UNL1        0.1964
     21 O         142.3358  139.1296  166.8820 O.2     1  UNL1       -0.2892
     22 C         141.2048  138.6192  164.5994 C.2     1  UNL1        0.0569
     23 C         141.0508  137.1667  164.2580 C.2     1  UNL1        0.1014
     24 N         141.1816  137.0239  162.7705 N.2     1  UNL1       -0.2477
     25 C         141.4165  138.3880  162.1927 C.2     1  UNL1        0.0635
     26 C         141.6191  138.8598  160.7833 C.3     1  UNL1        0.0717
     27 C         141.8361  140.3175  160.5043 C.2     1  UNL1       -0.0198
     28 C         141.8505  141.3035  161.6346 C.2     1  UNL1       -0.0041
     29 C         141.6478  140.8317  163.0440 C.2     1  UNL1        0.0010
     30 C         141.4308  139.3740  163.3230 C.2     1  UNL1        0.0182
@<TRIPOS>BOND
     1    16    17    1
     2    17    10    1
     3    10    11   ar
     4    11    12   ar
     5    12     8    1
     6     8     1    1
     7     1    20    1
     8    20    21    2
     9    20    22    1
    10    22    23    2
    11    23    24    1
    12    24    25    2
    13    25    26    1
    14    26    27    1
    15    27    28    2
    16    28    29    1
    17    29    30    2
    18     1     2    1
    19     2     3   ar
    20     3     4   ar
    21     4     5   ar
    22     5     6   ar
    23     6     7   ar
    24    12    13   ar
    25    13    14   ar
    26    14    18    1
    27    18    19    1
    28    14    15   ar
    29    15    10   ar
    30    30    22    1
    31     7     2   ar
    32    30    25    1
    33     8     9    1
