@<TRIPOS>MOLECULE
*****
 30 32 0 0 0
SMALL
GASTEIGER

@<TRIPOS>ATOM
      1 O         141.8508  138.1202  162.0814 O.3     1  UNL1       -0.3470
      2 C         142.8360  138.5975  163.1068 C.3     1  UNL1        0.1875
      3 C         141.3736  141.7138  165.0817 C.ar    1  UNL1        0.0806
      4 C         141.4634  141.2209  166.4955 C.ar    1  UNL1        0.0230
      5 C         142.0107  139.8536  166.7798 C.ar    1  UNL1        0.0742
      6 C         142.4682  138.9791  165.6503 C.ar    1  UNL1        0.0211
      7 C         142.3784  139.4720  164.2364 C.ar    1  UNL1        0.0887
      8 N         141.8311  140.8393  163.9521 N.ar    1  UNL1       -0.2472
      9 C         142.1005  139.3607  168.1937 C.3     1  UNL1        0.4187
     10 F         142.1902  138.8679  169.6076 F       1  UNL1       -0.1659
     11 F         140.8896  140.1700  168.5527 F       1  UNL1       -0.1659
     12 F         143.3113  138.5514  167.8348 F       1  UNL1       -0.1659
     13 C         138.9569  144.8618  165.0889 C.3     1  UNL1        0.0307
     14 C         139.5043  143.4944  165.3732 C.2     1  UNL1       -0.0242
     15 C         140.8262  143.0811  164.7974 C.2     1  UNL1        0.0145
     16 C         140.4257  137.8635  162.4729 C.3     1  UNL1        0.1467
     17 C         139.3267  138.7088  161.9004 C.3     1  UNL1        0.0489
     18 C         140.0901  138.3913  160.6489 C.3     1  UNL1        0.0238
     19 C         139.6219  138.9274  159.3285 C.3     1  UNL1        0.0725
     20 N         138.3904  139.7810  159.2597 N.3     1  UNL1       -0.2715
     21 C         137.9222  140.3171  157.9394 C.3     1  UNL1        0.0896
     22 C         137.6270  140.0985  160.5113 C.3     1  UNL1        0.0725
     23 C         138.0952  139.5624  161.8317 C.3     1  UNL1        0.0238
     24 C         138.9450  138.7327  163.3509 C.ar    1  UNL1       -0.0202
     25 C         139.0489  137.4832  164.1744 C.ar    1  UNL1       -0.0019
     26 C         138.6672  137.5072  165.6249 C.ar    1  UNL1        0.0293
     27 C         138.1816  138.7804  166.2518 C.ar    1  UNL1        0.1401
     28 F         137.7999  138.8044  167.7022 F       1  UNL1       -0.2042
     29 C         138.0778  140.0299  165.4282 C.ar    1  UNL1        0.0293
     30 C         138.4595  140.0059  163.9778 C.ar    1  UNL1       -0.0019
@<TRIPOS>BOND
     1    13    14    1
     2    14    15    2
     3    15     3    1
     4     3     4   ar
     5     4     5   ar
     6     5     9    1
     7     9    10    1
     8     9    11    1
     9     9    12    1
    10     5     6   ar
    11     6     7   ar
    12     7     2    1
    13     2     1    1
    14     1    16    1
    15    16    17    1
    16    17    24    1
    17    24    25   ar
    18    25    26   ar
    19    26    27   ar
    20    27    28    1
    21    27    29   ar
    22    29    30   ar
    23    17    18    1
    24    18    19    1
    25    19    20    1
    26    20    21    1
    27    20    22    1
    28    22    23    1
    29     7     8   ar
    30     8     3   ar
    31    23    17    1
    32    30    24   ar
@<TRIPOS>MOLECULE
*****
 30 32 0 0 0
SMALL
GASTEIGER

@<TRIPOS>ATOM
      1 O         139.7800  140.9523  161.7324 O.3     1  UNL1       -0.3470
      2 C         138.8977  141.5129  162.8081 C.3     1  UNL1        0.1875
      3 C         140.0472  141.4608  166.6063 C.ar    1  UNL1        0.0806
      4 C         139.4248  140.1783  167.0732 C.ar    1  UNL1        0.0230
      5 C         138.6268  139.3407  166.1185 C.ar    1  UNL1        0.0742
      6 C         138.4511  139.7856  164.6968 C.ar    1  UNL1        0.0211
      7 C         139.0734  141.0680  164.2299 C.ar    1  UNL1        0.0887
      8 N         139.8714  141.9056  165.1847 N.ar    1  UNL1       -0.2472
      9 C         138.0045  138.0582  166.5854 C.3     1  UNL1        0.4187
     10 F         137.3821  136.7758  167.0524 F       1  UNL1       -0.1659
     11 F         137.3744  138.7835  167.7373 F       1  UNL1       -0.1659
     12 F         138.6346  137.3330  165.4335 F       1  UNL1       -0.1659
     13 C         141.1445  143.3624  169.9123 C.3     1  UNL1        0.0307
     14 C         140.3465  142.5249  168.9575 C.2     1  UNL1       -0.0242
     15 C         140.8452  142.2983  167.5611 C.2     1  UNL1        0.0145
     16 C         141.2415  140.7404  161.9956 C.3     1  UNL1        0.1467
     17 C         141.9221  139.5017  161.4933 C.3     1  UNL1        0.0489
     18 C         141.4116  140.0617  160.1988 C.3     1  UNL1        0.0238
     19 C         141.6769  139.3379  158.9120 C.3     1  UNL1        0.0725
     20 N         142.4527  138.0541  158.9198 N.3     1  UNL1       -0.2715
     21 C         142.7181  137.3303  157.6331 C.3     1  UNL1        0.0896
     22 C         142.9633  137.4942  160.2143 C.3     1  UNL1        0.0725
     23 C         142.6980  138.2180  161.5011 C.3     1  UNL1        0.0238
     24 C         142.1963  139.3720  162.9623 C.ar    1  UNL1       -0.0202
     25 C         142.9438  140.4537  163.6842 C.ar    1  UNL1       -0.0019
     26 C         143.2179  140.3240  165.1532 C.ar    1  UNL1        0.0293
     27 C         142.7446  139.1126  165.9004 C.ar    1  UNL1        0.1401
     28 F         143.0187  138.9827  167.3694 F       1  UNL1       -0.2042
     29 C         141.9970  138.0307  165.1785 C.ar    1  UNL1        0.0293
     30 C         141.7229  138.1606  163.7095 C.ar    1  UNL1       -0.0019
@<TRIPOS>BOND
     1    13    14    1
     2    14    15    2
     3    15     3    1
     4     3     4   ar
     5     4     5   ar
     6     5     9    1
     7     9    10    1
     8     9    11    1
     9     9    12    1
    10     5     6   ar
    11     6     7   ar
    12     7     2    1
    13     2     1    1
    14     1    16    1
    15    16    17    1
    16    17    24    1
    17    24    25   ar
    18    25    26   ar
    19    26    27   ar
    20    27    28    1
    21    27    29   ar
    22    29    30   ar
    23    17    18    1
    24    18    19    1
    25    19    20    1
    26    20    21    1
    27    20    22    1
    28    22    23    1
    29     7     8   ar
    30     8     3   ar
    31    23    17    1
    32    30    24   ar
@<TRIPOS>MOLECULE
*****
 30 32 0 0 0
SMALL
GASTEIGER

@<TRIPOS>ATOM
      1 O         143.3212  141.2170  165.2190 O.3     1  UNL1       -0.3470
      2 C         142.8607  140.1429  164.2787 C.3     1  UNL1        0.1875
      3 C         139.2616  140.2495  162.6097 C.ar    1  UNL1        0.0806
      4 C         138.4614  139.4711  163.6115 C.ar    1  UNL1        0.0230
      5 C         139.1276  138.9166  164.8357 C.ar    1  UNL1        0.0742
      6 C         140.5940  139.1405  165.0581 C.ar    1  UNL1        0.0211
      7 C         141.3942  139.9189  164.0563 C.ar    1  UNL1        0.0887
      8 N         140.7280  140.4734  162.8321 N.ar    1  UNL1       -0.2472
      9 C         138.3273  138.1382  165.8376 C.3     1  UNL1        0.4187
     10 F         137.5271  137.3597  166.8394 F       1  UNL1       -0.1659
     11 F         138.9915  136.8720  165.3843 F       1  UNL1       -0.1659
     12 F         137.6631  139.4043  166.2909 F       1  UNL1       -0.1659
     13 C         138.5992  142.4412  159.3681 C.3     1  UNL1        0.0307
     14 C         139.2653  141.8867  160.5923 C.2     1  UNL1       -0.0242
     15 C         138.5954  140.8040  161.3855 C.2     1  UNL1        0.0145
     16 C         142.4783  142.4394  165.4319 C.3     1  UNL1        0.1467
     17 C         141.6344  142.5629  166.6658 C.3     1  UNL1        0.0489
     18 C         142.9133  142.0678  167.2734 C.3     1  UNL1        0.0238
     19 C         143.0059  141.8533  168.7551 C.3     1  UNL1        0.0725
     20 N         141.8196  142.1338  169.6291 N.3     1  UNL1       -0.2715
     21 C         141.9122  141.9192  171.1108 C.3     1  UNL1        0.0896
     22 C         140.5407  142.6289  169.0215 C.3     1  UNL1        0.0725
     23 C         140.4480  142.8434  167.5398 C.3     1  UNL1        0.0238
     24 C         140.6485  143.0151  165.6296 C.ar    1  UNL1       -0.0202
     25 C         141.0832  143.9461  164.5367 C.ar    1  UNL1       -0.0019
     26 C         140.0973  144.3983  163.5005 C.ar    1  UNL1        0.0293
     27 C         138.6769  143.9196  163.5572 C.ar    1  UNL1        0.1401
     28 F         137.6911  144.3717  162.5211 F       1  UNL1       -0.2042
     29 C         138.2423  142.9885  164.6502 C.ar    1  UNL1        0.0293
     30 C         139.2282  142.5364  165.6863 C.ar    1  UNL1       -0.0019
@<TRIPOS>BOND
     1    13    14    1
     2    14    15    2
     3    15     3    1
     4     3     4   ar
     5     4     5   ar
     6     5     9    1
     7     9    10    1
     8     9    11    1
     9     9    12    1
    10     5     6   ar
    11     6     7   ar
    12     7     2    1
    13     2     1    1
    14     1    16    1
    15    16    17    1
    16    17    24    1
    17    24    25   ar
    18    25    26   ar
    19    26    27   ar
    20    27    28    1
    21    27    29   ar
    22    29    30   ar
    23    17    18    1
    24    18    19    1
    25    19    20    1
    26    20    21    1
    27    20    22    1
    28    22    23    1
    29     7     8   ar
    30     8     3   ar
    31    23    17    1
    32    30    24   ar
@<TRIPOS>MOLECULE
*****
 30 32 0 0 0
SMALL
GASTEIGER

@<TRIPOS>ATOM
      1 O         143.2478  138.4487  163.7700 O.3     1  UNL1       -0.3470
      2 C         143.6703  139.1701  165.0153 C.3     1  UNL1        0.1875
      3 C         141.1689  142.1020  165.9623 C.ar    1  UNL1        0.0806
      4 C         140.6874  141.6409  167.3059 C.ar    1  UNL1        0.0230
      5 C         141.2002  140.3562  167.8861 C.ar    1  UNL1        0.0742
      6 C         142.1945  139.5326  167.1226 C.ar    1  UNL1        0.0211
      7 C         142.6760  139.9937  165.7789 C.ar    1  UNL1        0.0887
      8 N         142.1632  141.2784  165.1988 N.ar    1  UNL1       -0.2472
      9 C         140.7186  139.8952  169.2298 C.3     1  UNL1        0.4187
     10 F         140.2371  139.4341  170.5735 F       1  UNL1       -0.1659
     11 F         139.4259  140.6256  169.0172 F       1  UNL1       -0.1659
     12 F         142.0113  139.1647  169.4425 F       1  UNL1       -0.1659
     13 C         138.6662  144.9136  164.7047 C.3     1  UNL1        0.0307
     14 C         139.1790  143.6289  165.2848 C.2     1  UNL1       -0.0242
     15 C         140.6561  143.3867  165.3821 C.2     1  UNL1        0.0145
     16 C         141.8731  137.8557  163.6765 C.3     1  UNL1        0.1467
     17 C         140.9623  138.2473  162.5510 C.3     1  UNL1        0.0489
     18 C         142.2127  137.9432  161.7804 C.3     1  UNL1        0.0238
     19 C         142.2279  138.0891  160.2876 C.3     1  UNL1        0.0725
     20 N         140.9926  138.5392  159.5654 N.3     1  UNL1       -0.2715
     21 C         141.0079  138.6851  158.0726 C.3     1  UNL1        0.0896
     22 C         139.7422  138.8433  160.3359 C.3     1  UNL1        0.0725
     23 C         139.7270  138.6974  161.8287 C.3     1  UNL1        0.0238
     24 C         140.0281  138.4155  163.7125 C.ar    1  UNL1       -0.0202
     25 C         139.8312  137.2909  164.6854 C.ar    1  UNL1       -0.0019
     26 C         138.8970  137.4590  165.8470 C.ar    1  UNL1        0.0293
     27 C         138.1599  138.7517  166.0356 C.ar    1  UNL1        0.1401
     28 F         137.2257  138.9199  167.1970 F       1  UNL1       -0.2042
     29 C         138.3568  139.8763  165.0626 C.ar    1  UNL1        0.0293
     30 C         139.2910  139.7081  163.9011 C.ar    1  UNL1       -0.0019
@<TRIPOS>BOND
     1    13    14    1
     2    14    15    2
     3    15     3    1
     4     3     4   ar
     5     4     5   ar
     6     5     9    1
     7     9    10    1
     8     9    11    1
     9     9    12    1
    10     5     6   ar
    11     6     7   ar
    12     7     2    1
    13     2     1    1
    14     1    16    1
    15    16    17    1
    16    17    24    1
    17    24    25   ar
    18    25    26   ar
    19    26    27   ar
    20    27    28    1
    21    27    29   ar
    22    29    30   ar
    23    17    18    1
    24    18    19    1
    25    19    20    1
    26    20    21    1
    27    20    22    1
    28    22    23    1
    29     7     8   ar
    30     8     3   ar
    31    23    17    1
    32    30    24   ar
@<TRIPOS>MOLECULE
*****
 30 32 0 0 0
SMALL
GASTEIGER

@<TRIPOS>ATOM
      1 O         143.5733  140.4444  165.8215 O.3     1  UNL1       -0.3470
      2 C         143.5044  141.4031  164.6700 C.3     1  UNL1        0.1875
      3 C         140.2917  141.7200  162.3616 C.ar    1  UNL1        0.0806
      4 C         139.5082  142.7592  163.1073 C.ar    1  UNL1        0.0230
      5 C         140.0568  143.3464  164.3740 C.ar    1  UNL1        0.0742
      6 C         141.3888  142.8944  164.8948 C.ar    1  UNL1        0.0211
      7 C         142.1723  141.8552  164.1491 C.ar    1  UNL1        0.0887
      8 N         141.6237  141.2680  162.8825 N.ar    1  UNL1       -0.2472
      9 C         139.2732  144.3856  165.1197 C.3     1  UNL1        0.4187
     10 F         138.4897  145.4248  165.8655 F       1  UNL1       -0.1659
     11 F         139.6323  143.7250  166.4176 F       1  UNL1       -0.1659
     12 F         138.9140  145.0463  163.8218 F       1  UNL1       -0.1659
     13 C         137.7365  140.2086  159.7279 C.3     1  UNL1        0.0307
     14 C         138.2850  140.7957  160.9945 C.2     1  UNL1       -0.0242
     15 C         139.7432  141.1329  161.0950 C.2     1  UNL1        0.0145
     16 C         142.4553  139.4720  166.0558 C.3     1  UNL1        0.1467
     17 C         141.3766  139.7942  167.0470 C.3     1  UNL1        0.0489
     18 C         142.5872  140.1763  167.8461 C.3     1  UNL1        0.0238
     19 C         142.4287  140.7091  169.2393 C.3     1  UNL1        0.0725
     20 N         141.0596  140.8596  169.8335 N.3     1  UNL1       -0.2715
     21 C         140.9012  141.3924  171.2267 C.3     1  UNL1        0.0896
     22 C         139.8491  140.4775  169.0345 C.3     1  UNL1        0.0725
     23 C         140.0075  139.9447  167.6412 C.3     1  UNL1        0.0238
     24 C         140.5407  139.3001  165.9037 C.ar    1  UNL1       -0.0202
     25 C         141.0351  138.1741  165.0448 C.ar    1  UNL1       -0.0019
     26 C         140.1992  137.6800  163.9015 C.ar    1  UNL1        0.0293
     27 C         138.8689  138.3119  163.6171 C.ar    1  UNL1        0.1401
     28 F         138.0329  137.8179  162.4739 F       1  UNL1       -0.2042
     29 C         138.3744  139.4380  164.4761 C.ar    1  UNL1        0.0293
     30 C         139.2104  139.9320  165.6193 C.ar    1  UNL1       -0.0019
@<TRIPOS>BOND
     1    13    14    1
     2    14    15    2
     3    15     3    1
     4     3     4   ar
     5     4     5   ar
     6     5     9    1
     7     9    10    1
     8     9    11    1
     9     9    12    1
    10     5     6   ar
    11     6     7   ar
    12     7     2    1
    13     2     1    1
    14     1    16    1
    15    16    17    1
    16    17    24    1
    17    24    25   ar
    18    25    26   ar
    19    26    27   ar
    20    27    28    1
    21    27    29   ar
    22    29    30   ar
    23    17    18    1
    24    18    19    1
    25    19    20    1
    26    20    21    1
    27    20    22    1
    28    22    23    1
    29     7     8   ar
    30     8     3   ar
    31    23    17    1
    32    30    24   ar
@<TRIPOS>MOLECULE
*****
 30 32 0 0 0
SMALL
GASTEIGER

@<TRIPOS>ATOM
      1 O         142.0222  138.0648  162.5773 O.3     1  UNL1       -0.3470
      2 C         142.8738  138.6131  163.6836 C.3     1  UNL1        0.1875
      3 C         141.3357  140.3615  166.8973 C.ar    1  UNL1        0.0806
      4 C         141.2340  141.7818  166.4259 C.ar    1  UNL1        0.0230
      5 C         141.6788  142.1460  165.0404 C.ar    1  UNL1        0.0742
      6 C         142.2254  141.0898  164.1263 C.ar    1  UNL1        0.0211
      7 C         142.3272  139.6694  164.5977 C.ar    1  UNL1        0.0887
      8 N         141.8823  139.3053  165.9832 N.ar    1  UNL1       -0.2472
      9 C         141.5770  143.5664  164.5691 C.3     1  UNL1        0.4187
     10 F         141.4752  144.9867  164.0977 F       1  UNL1       -0.1659
     11 F         140.0805  143.4692  164.5995 F       1  UNL1       -0.1659
     12 F         143.0735  143.6636  164.5386 F       1  UNL1       -0.1659
     13 C         139.3198  140.3830  170.3157 C.3     1  UNL1        0.0307
     14 C         139.7646  140.7472  168.9302 C.2     1  UNL1       -0.0242
     15 C         140.8909  139.9974  168.2828 C.2     1  UNL1        0.0145
     16 C         140.5646  137.8003  162.8134 C.3     1  UNL1        0.1467
     17 C         139.5294  138.6593  162.1498 C.3     1  UNL1        0.0489
     18 C         140.3982  138.3398  160.9696 C.3     1  UNL1        0.0238
     19 C         140.0550  138.8866  159.6157 C.3     1  UNL1        0.0725
     20 N         138.8428  139.7530  159.4420 N.3     1  UNL1       -0.2715
     21 C         138.4996  140.2998  158.0881 C.3     1  UNL1        0.0896
     22 C         137.9740  140.0726  160.6222 C.3     1  UNL1        0.0725
     23 C         138.3173  139.5258  161.9762 C.3     1  UNL1        0.0238
     24 C         139.0201  138.6806  163.5606 C.ar    1  UNL1       -0.0202
     25 C         138.9875  137.4151  164.3653 C.ar    1  UNL1       -0.0019
     26 C         138.4782  137.4364  165.7761 C.ar    1  UNL1        0.0293
     27 C         138.0015  138.7230  166.3821 C.ar    1  UNL1        0.1401
     28 F         137.4922  138.7443  167.7928 F       1  UNL1       -0.2042
     29 C         138.0341  139.9885  165.5773 C.ar    1  UNL1        0.0293
     30 C         138.5434  139.9672  164.1666 C.ar    1  UNL1       -0.0019
@<TRIPOS>BOND
     1    13    14    1
     2    14    15    2
     3    15     3    1
     4     3     4   ar
     5     4     5   ar
     6     5     9    1
     7     9    10    1
     8     9    11    1
     9     9    12    1
    10     5     6   ar
    11     6     7   ar
    12     7     2    1
    13     2     1    1
    14     1    16    1
    15    16    17    1
    16    17    24    1
    17    24    25   ar
    18    25    26   ar
    19    26    27   ar
    20    27    28    1
    21    27    29   ar
    22    29    30   ar
    23    17    18    1
    24    18    19    1
    25    19    20    1
    26    20    21    1
    27    20    22    1
    28    22    23    1
    29     7     8   ar
    30     8     3   ar
    31    23    17    1
    32    30    24   ar
@<TRIPOS>MOLECULE
*****
 30 32 0 0 0
SMALL
GASTEIGER

@<TRIPOS>ATOM
      1 O         140.4855  143.0756  165.8363 O.3     1  UNL1       -0.3470
      2 C         139.4662  142.6523  164.8205 C.3     1  UNL1        0.1875
      3 C         139.5073  139.2155  162.8364 C.ar    1  UNL1        0.0806
      4 C         138.9227  138.2894  163.8613 C.ar    1  UNL1        0.0230
      5 C         138.5193  138.8176  165.2061 C.ar    1  UNL1        0.0742
      6 C         138.7004  140.2719  165.5258 C.ar    1  UNL1        0.0211
      7 C         139.2850  141.1979  164.5008 C.ar    1  UNL1        0.0887
      8 N         139.6885  140.6697  163.1561 N.ar    1  UNL1       -0.2472
      9 C         137.9347  137.8915  166.2311 C.3     1  UNL1        0.4187
     10 F         137.3501  136.9654  167.2560 F       1  UNL1       -0.1659
     11 F         138.5192  136.7173  165.5034 F       1  UNL1       -0.1659
     12 F         137.3502  139.0657  166.9587 F       1  UNL1       -0.1659
     13 C         141.7086  138.3820  159.6411 C.3     1  UNL1        0.0307
     14 C         141.3052  138.9102  160.9858 C.2     1  UNL1       -0.0242
     15 C         139.9108  138.6873  161.4917 C.2     1  UNL1        0.0145
     16 C         141.8096  142.3743  165.9075 C.3     1  UNL1        0.1467
     17 C         142.0915  141.4158  167.0262 C.3     1  UNL1        0.0489
     18 C         141.3979  142.5069  167.7866 C.3     1  UNL1        0.0238
     19 C         141.1930  142.3762  169.2668 C.3     1  UNL1        0.0725
     20 N         141.6818  141.1542  169.9866 N.3     1  UNL1       -0.2715
     21 C         141.4770  141.0235  171.4667 C.3     1  UNL1        0.0896
     22 C         142.3754  140.0631  169.2262 C.3     1  UNL1        0.0725
     23 C         142.5803  140.1938  167.7460 C.3     1  UNL1        0.0238
     24 C         142.6873  140.6575  165.8772 C.ar    1  UNL1       -0.0202
     25 C         142.2228  139.2630  165.5776 C.ar    1  UNL1       -0.0019
     26 C         142.8186  138.5047  164.4286 C.ar    1  UNL1        0.0293
     27 C         143.8787  139.1409  163.5793 C.ar    1  UNL1        0.1401
     28 F         144.4745  138.3827  162.4303 F       1  UNL1       -0.2042
     29 C         144.3431  140.5355  163.8789 C.ar    1  UNL1        0.0293
     30 C         143.7473  141.2937  165.0279 C.ar    1  UNL1       -0.0019
@<TRIPOS>BOND
     1    13    14    1
     2    14    15    2
     3    15     3    1
     4     3     4   ar
     5     4     5   ar
     6     5     9    1
     7     9    10    1
     8     9    11    1
     9     9    12    1
    10     5     6   ar
    11     6     7   ar
    12     7     2    1
    13     2     1    1
    14     1    16    1
    15    16    17    1
    16    17    24    1
    17    24    25   ar
    18    25    26   ar
    19    26    27   ar
    20    27    28    1
    21    27    29   ar
    22    29    30   ar
    23    17    18    1
    24    18    19    1
    25    19    20    1
    26    20    21    1
    27    20    22    1
    28    22    23    1
    29     7     8   ar
    30     8     3   ar
    31    23    17    1
    32    30    24   ar
@<TRIPOS>MOLECULE
*****
 30 32 0 0 0
SMALL
GASTEIGER

@<TRIPOS>ATOM
      1 O         138.4030  138.9501  163.3009 O.3     1  UNL1       -0.3470
      2 C         138.5371  138.5535  164.7413 C.3     1  UNL1        0.1875
      3 C         140.4632  140.5872  167.5528 C.ar    1  UNL1        0.0806
      4 C         141.8856  140.2327  167.2349 C.ar    1  UNL1        0.0230
      5 C         142.1918  139.3186  166.0858 C.ar    1  UNL1        0.0742
      6 C         141.0757  138.7588  165.2546 C.ar    1  UNL1        0.0211
      7 C         139.6533  139.1133  165.5725 C.ar    1  UNL1        0.0887
      8 N         139.3471  140.0274  166.7216 N.ar    1  UNL1       -0.2472
      9 C         143.6143  138.9641  165.7678 C.3     1  UNL1        0.4187
     10 F         145.0367  138.6097  165.4499 F       1  UNL1       -0.1659
     11 F         143.4831  139.6352  164.4328 F       1  UNL1       -0.1659
     12 F         143.7456  138.2931  167.1029 F       1  UNL1       -0.1659
     13 C         140.4658  143.7824  169.9067 C.3     1  UNL1        0.0307
     14 C         140.7721  142.8682  168.7575 C.2     1  UNL1       -0.0242
     15 C         140.1569  141.5013  168.7019 C.2     1  UNL1        0.0145
     16 C         138.5924  140.3821  162.8964 C.3     1  UNL1        0.1467
     17 C         139.9345  140.8565  162.4233 C.3     1  UNL1        0.0489
     18 C         139.8342  139.5641  161.6687 C.3     1  UNL1        0.0238
     19 C         140.9489  139.1376  160.7601 C.3     1  UNL1        0.0725
     20 N         142.1639  140.0038  160.6061 N.3     1  UNL1       -0.2715
     21 C         143.2786  139.5773  159.6975 C.3     1  UNL1        0.0896
     22 C         142.2642  141.2962  161.3607 C.3     1  UNL1        0.0725
     23 C         141.1495  141.7226  162.2693 C.3     1  UNL1        0.0238
     24 C         139.5686  141.9843  163.3423 C.ar    1  UNL1       -0.0202
     25 C         140.5816  142.5231  164.3085 C.ar    1  UNL1       -0.0019
     26 C         140.2157  143.6508  165.2274 C.ar    1  UNL1        0.0293
     27 C         138.8370  144.2397  165.1801 C.ar    1  UNL1        0.1401
     28 F         138.4711  145.3674  166.0990 F       1  UNL1       -0.2042
     29 C         137.8240  143.7008  164.2139 C.ar    1  UNL1        0.0293
     30 C         138.1899  142.5731  163.2950 C.ar    1  UNL1       -0.0019
@<TRIPOS>BOND
     1    13    14    1
     2    14    15    2
     3    15     3    1
     4     3     4   ar
     5     4     5   ar
     6     5     9    1
     7     9    10    1
     8     9    11    1
     9     9    12    1
    10     5     6   ar
    11     6     7   ar
    12     7     2    1
    13     2     1    1
    14     1    16    1
    15    16    17    1
    16    17    24    1
    17    24    25   ar
    18    25    26   ar
    19    26    27   ar
    20    27    28    1
    21    27    29   ar
    22    29    30   ar
    23    17    18    1
    24    18    19    1
    25    19    20    1
    26    20    21    1
    27    20    22    1
    28    22    23    1
    29     7     8   ar
    30     8     3   ar
    31    23    17    1
    32    30    24   ar
@<TRIPOS>MOLECULE
*****
 30 32 0 0 0
SMALL
GASTEIGER

@<TRIPOS>ATOM
      1 O         144.3177  143.8381  164.0757 O.3     1  UNL1       -0.3470
      2 C         143.5053  145.0739  163.8251 C.3     1  UNL1        0.1875
      3 C         140.6191  144.8891  161.1075 C.ar    1  UNL1        0.0806
      4 C         139.4120  144.7409  161.9855 C.ar    1  UNL1        0.0230
      5 C         139.5694  144.7037  163.4768 C.ar    1  UNL1        0.0742
      6 C         140.9338  144.8147  164.0900 C.ar    1  UNL1        0.0211
      7 C         142.1408  144.9629  163.2119 C.ar    1  UNL1        0.0887
      8 N         141.9835  145.0001  161.7207 N.ar    1  UNL1       -0.2472
      9 C         138.3623  144.5555  164.3549 C.3     1  UNL1        0.4187
     10 F         137.1552  144.4073  165.2329 F       1  UNL1       -0.1659
     11 F         137.6194  143.9078  163.2242 F       1  UNL1       -0.1659
     12 F         139.1052  145.2032  165.4856 F       1  UNL1       -0.1659
     13 C         141.4117  145.4999  157.2671 C.3     1  UNL1        0.0307
     14 C         141.5691  145.4627  158.7583 C.2     1  UNL1       -0.0242
     15 C         140.4617  144.9263  159.6162 C.2     1  UNL1        0.0145
     16 C         143.9270  142.8935  165.1735 C.3     1  UNL1        0.1467
     17 C         143.3553  141.5482  164.8373 C.3     1  UNL1        0.0489
     18 C         144.4105  141.6553  163.7767 C.3     1  UNL1        0.0238
     19 C         144.5965  140.5421  162.7886 C.3     1  UNL1        0.0725
     20 N         143.7272  139.3218  162.8613 N.3     1  UNL1       -0.2715
     21 C         143.9132  138.2086  161.8732 C.3     1  UNL1        0.0896
     22 C         142.6720  139.2147  163.9219 C.3     1  UNL1        0.0725
     23 C         142.4860  140.3279  164.9099 C.3     1  UNL1        0.0238
     24 C         142.4986  141.9084  166.0148 C.ar    1  UNL1       -0.0202
     25 C         143.1306  142.1726  167.3492 C.ar    1  UNL1       -0.0019
     26 C         142.2739  142.5328  168.5267 C.ar    1  UNL1        0.0293
     27 C         140.7853  142.6287  168.3697 C.ar    1  UNL1        0.1401
     28 F         139.9285  142.9888  169.5471 F       1  UNL1       -0.2042
     29 C         140.1532  142.3644  167.0352 C.ar    1  UNL1        0.0293
     30 C         141.0099  142.0042  165.8578 C.ar    1  UNL1       -0.0019
@<TRIPOS>BOND
     1    13    14    1
     2    14    15    2
     3    15     3    1
     4     3     4   ar
     5     4     5   ar
     6     5     9    1
     7     9    10    1
     8     9    11    1
     9     9    12    1
    10     5     6   ar
    11     6     7   ar
    12     7     2    1
    13     2     1    1
    14     1    16    1
    15    16    17    1
    16    17    24    1
    17    24    25   ar
    18    25    26   ar
    19    26    27   ar
    20    27    28    1
    21    27    29   ar
    22    29    30   ar
    23    17    18    1
    24    18    19    1
    25    19    20    1
    26    20    21    1
    27    20    22    1
    28    22    23    1
    29     7     8   ar
    30     8     3   ar
    31    23    17    1
    32    30    24   ar
