@<TRIPOS>MOLECULE
*****
 25 29 0 0 0
SMALL
GASTEIGER

@<TRIPOS>ATOM
      1 C         139.1557  138.7810  165.0460 C.3     1  UNL1        0.1676
      2 C         138.1360  138.7397  166.1454 C.3     1  UNL1        0.0450
      3 C         138.4605  139.3168  167.4914 C.3     1  UNL1        0.0197
      4 C         139.8047  139.9352  167.7380 C.3     1  UNL1        0.0578
      5 C         140.8243  139.9765  166.6386 C.3     1  UNL1        0.0197
      6 C         140.4998  139.3994  165.2926 C.3     1  UNL1        0.0450
      7 N         140.1291  140.5123  169.0840 N.3     1  UNL1       -0.2709
      8 C         140.8403  139.8042  170.1988 C.3     1  UNL1        0.1020
      9 C         140.9501  140.7531  171.3552 C.3     1  UNL1        0.1326
     10 C         140.4427  140.6043  169.9514 C.3     1  UNL1        0.0495
     11 C         139.7993  141.8990  169.5514 C.3     1  UNL1        0.0898
     12 C         139.9091  142.8479  170.7079 C.3     1  UNL1        0.1580
     13 O         140.6203  142.1397  171.8228 O.3     1  UNL1       -0.3533
     14 O         138.8312  138.2039  163.7001 O.3     1  UNL1       -0.4639
     15 C         137.4149  141.0002  163.0109 C.3     1  UNL1        0.0329
     16 C         138.4647  140.9234  161.9421 C.ar    1  UNL1        0.0047
     17 C         138.7088  141.9448  160.8711 C.ar    1  UNL1        0.0965
     18 N         139.8495  141.4644  160.0239 N.ar    1  UNL1       -0.2271
     19 C         140.3105  140.1461  160.5713 C.ar    1  UNL1        0.1459
     20 N         141.3989  139.2069  160.1433 N.ar    1  UNL1       -0.3213
     21 C         141.6315  137.9335  160.9010 C.ar    1  UNL1        0.1791
     22 N         140.7756  137.5991  162.0865 N.ar    1  UNL1       -0.1912
     23 C         139.6871  138.5382  162.5145 C.ar    1  UNL1        0.2287
     24 C         139.4545  139.8117  161.7568 C.ar    1  UNL1        0.0846
     25 H         141.9607  139.4264  159.3652 H       1  UNL1        0.1689
@<TRIPOS>BOND
     1    15    16    1
     2    16    17   ar
     3    17    18   ar
     4    18    19   ar
     5    19    20   ar
     6    20    21   ar
     7    21    22   ar
     8    22    23   ar
     9    23    14    1
    10     1    14    1
    11     1     2    1
    12     2     3    1
    13     3     4    1
    14     4     7    1
    15     7     8    1
    16     9     8    1
    17     9    10    1
    18    10    11    1
    19    11    12    1
    20    12    13    1
    21     4     5    1
    22     5     6    1
    23    23    24   ar
    24    24    16   ar
    25    24    19    1
    26     6     1    1
    27    11     7    1
    28    13     9    1
    29    20    25    1
@<TRIPOS>MOLECULE
*****
 25 29 0 0 0
SMALL
GASTEIGER

@<TRIPOS>ATOM
      1 C         139.0692  139.5584  165.2488 C.3     1  UNL1        0.1676
      2 C         139.8983  140.7478  164.8641 C.3     1  UNL1        0.0450
      3 C         140.5434  141.5876  165.9265 C.3     1  UNL1        0.0197
      4 C         140.3593  141.2380  167.3735 C.3     1  UNL1        0.0578
      5 C         139.5302  140.0487  167.7582 C.3     1  UNL1        0.0197
      6 C         138.8851  139.2089  166.6958 C.3     1  UNL1        0.0450
      7 N         141.0044  142.0779  168.4359 N.3     1  UNL1       -0.2709
      8 C         140.3530  143.1990  169.1901 C.3     1  UNL1        0.1020
      9 C         141.3602  143.7580  170.1509 C.3     1  UNL1        0.1326
     10 C         141.1403  142.7196  169.0909 C.3     1  UNL1        0.0495
     11 C         142.4141  141.9439  168.9306 C.3     1  UNL1        0.0898
     12 C         143.4213  142.5029  169.8914 C.3     1  UNL1        0.1580
     13 O         142.7699  143.6241  170.6456 O.3     1  UNL1       -0.3533
     14 O         138.4241  138.7187  164.1864 O.3     1  UNL1       -0.4639
     15 C         141.2915  137.2996  163.9328 C.3     1  UNL1        0.0329
     16 C         141.0918  137.8245  162.5419 C.ar    1  UNL1        0.0047
     17 C         142.0481  137.6722  161.3963 C.ar    1  UNL1        0.0965
     18 N         141.4481  138.3474  160.1989 N.ar    1  UNL1       -0.2271
     19 C         140.1210  138.9171  160.6043 C.ar    1  UNL1        0.1459
     20 N         139.0846  139.6883  159.8420 N.ar    1  UNL1       -0.3213
     21 C         137.8281  140.1363  160.5279 C.ar    1  UNL1        0.1791
     22 N         137.6080  139.8131  161.9760 N.ar    1  UNL1       -0.1912
     23 C         138.6443  139.0419  162.7383 C.ar    1  UNL1        0.2287
     24 C         139.9008  138.5939  162.0525 C.ar    1  UNL1        0.0846
     25 H         139.2291  139.9004  158.8916 H       1  UNL1        0.1689
@<TRIPOS>BOND
     1    15    16    1
     2    16    17   ar
     3    17    18   ar
     4    18    19   ar
     5    19    20   ar
     6    20    21   ar
     7    21    22   ar
     8    22    23   ar
     9    23    14    1
    10     1    14    1
    11     1     2    1
    12     2     3    1
    13     3     4    1
    14     4     7    1
    15     7     8    1
    16     9     8    1
    17     9    10    1
    18    10    11    1
    19    11    12    1
    20    12    13    1
    21     4     5    1
    22     5     6    1
    23    23    24   ar
    24    24    16   ar
    25    24    19    1
    26     6     1    1
    27    11     7    1
    28    13     9    1
    29    20    25    1
@<TRIPOS>MOLECULE
*****
 25 29 0 0 0
SMALL
GASTEIGER

@<TRIPOS>ATOM
      1 C         141.6563  138.2149  165.0125 C.3     1  UNL1        0.1676
      2 C         140.4835  139.0483  165.4370 C.3     1  UNL1        0.0450
      3 C         140.5771  139.9043  166.6651 C.3     1  UNL1        0.0197
      4 C         141.8434  139.9270  167.4689 C.3     1  UNL1        0.0578
      5 C         143.0161  139.0937  167.0444 C.3     1  UNL1        0.0197
      6 C         142.9226  138.2376  165.8162 C.3     1  UNL1        0.0450
      7 N         141.9369  140.7831  168.6971 N.3     1  UNL1       -0.2709
      8 C         142.7319  142.0479  168.8318 C.3     1  UNL1        0.1020
      9 C         142.5382  142.5711  170.2242 C.3     1  UNL1        0.1326
     10 C         142.1666  141.4660  169.2803 C.3     1  UNL1        0.0495
     11 C         141.2517  140.5245  170.0062 C.3     1  UNL1        0.0898
     12 C         141.0579  141.0477  171.3985 C.3     1  UNL1        0.1580
     13 O         141.8530  142.3126  171.5333 O.3     1  UNL1       -0.3533
     14 O         141.5628  137.3589  163.7843 O.3     1  UNL1       -0.4639
     15 C         138.6473  137.8056  162.5193 C.3     1  UNL1        0.0329
     16 C         139.5341  138.2643  161.3999 C.ar    1  UNL1        0.0047
     17 C         139.0769  138.7821  160.0684 C.ar    1  UNL1        0.0965
     18 N         140.2941  139.1234  159.2611 N.ar    1  UNL1       -0.2271
     19 C         141.5036  138.8165  160.0935 C.ar    1  UNL1        0.1459
     20 N         142.9719  138.9520  159.8186 N.ar    1  UNL1       -0.3213
     21 C         143.9706  138.5564  160.8656 C.ar    1  UNL1        0.1791
     22 N         143.5008  138.0254  162.1875 N.ar    1  UNL1       -0.1912
     23 C         142.0325  137.8900  162.4624 C.ar    1  UNL1        0.2287
     24 C         141.0339  138.2855  161.4154 C.ar    1  UNL1        0.0846
     25 H         143.2802  139.3005  158.9510 H       1  UNL1        0.1689
@<TRIPOS>BOND
     1    15    16    1
     2    16    17   ar
     3    17    18   ar
     4    18    19   ar
     5    19    20   ar
     6    20    21   ar
     7    21    22   ar
     8    22    23   ar
     9    23    14    1
    10     1    14    1
    11     1     2    1
    12     2     3    1
    13     3     4    1
    14     4     7    1
    15     7     8    1
    16     9     8    1
    17     9    10    1
    18    10    11    1
    19    11    12    1
    20    12    13    1
    21     4     5    1
    22     5     6    1
    23    23    24   ar
    24    24    16   ar
    25    24    19    1
    26     6     1    1
    27    11     7    1
    28    13     9    1
    29    20    25    1
@<TRIPOS>MOLECULE
*****
 25 29 0 0 0
SMALL
GASTEIGER

@<TRIPOS>ATOM
      1 C         138.3650  140.0904  164.9208 C.3     1  UNL1        0.1676
      2 C         138.0896  139.1522  166.0585 C.3     1  UNL1        0.0450
      3 C         138.7379  139.3796  167.3918 C.3     1  UNL1        0.0197
      4 C         139.6617  140.5450  167.5877 C.3     1  UNL1        0.0578
      5 C         139.9372  141.4831  166.4501 C.3     1  UNL1        0.0197
      6 C         139.2888  141.2558  165.1167 C.3     1  UNL1        0.0450
      7 N         140.3101  140.7723  168.9211 N.3     1  UNL1       -0.2709
      8 C         139.7632  141.6144  170.0354 C.3     1  UNL1        0.1020
      9 C         140.7343  141.5599  171.1773 C.3     1  UNL1        0.1326
     10 C         140.4721  141.0731  169.7828 C.3     1  UNL1        0.0495
     11 C         141.6193  140.1972  169.3743 C.3     1  UNL1        0.0898
     12 C         142.5904  140.1427  170.5162 C.3     1  UNL1        0.1580
     13 O         142.0435  140.9849  171.6305 O.3     1  UNL1       -0.3533
     14 O         137.7166  139.8631  163.5875 O.3     1  UNL1       -0.4639
     15 C         139.9005  137.5919  162.9772 C.3     1  UNL1        0.0329
     16 C         140.1453  138.5542  161.8529 C.ar    1  UNL1        0.0047
     17 C         141.1726  138.4025  160.7704 C.ar    1  UNL1        0.0965
     18 N         141.0679  139.5917  159.8622 N.ar    1  UNL1       -0.2271
     19 C         139.9760  140.4783  160.3833 C.ar    1  UNL1        0.1459
     20 N         139.4273  141.7867  159.8965 N.ar    1  UNL1       -0.3213
     21 C         138.3084  142.4539  160.6400 C.ar    1  UNL1        0.1791
     22 N         137.7382  141.8127  161.8703 N.ar    1  UNL1       -0.1912
     23 C         138.2869  140.5043  162.3572 C.ar    1  UNL1        0.2287
     24 C         139.4058  139.8371  161.6136 C.ar    1  UNL1        0.0846
     25 H         139.8016  142.2076  159.0890 H       1  UNL1        0.1689
@<TRIPOS>BOND
     1    15    16    1
     2    16    17   ar
     3    17    18   ar
     4    18    19   ar
     5    19    20   ar
     6    20    21   ar
     7    21    22   ar
     8    22    23   ar
     9    23    14    1
    10     1    14    1
    11     1     2    1
    12     2     3    1
    13     3     4    1
    14     4     7    1
    15     7     8    1
    16     9     8    1
    17     9    10    1
    18    10    11    1
    19    11    12    1
    20    12    13    1
    21     4     5    1
    22     5     6    1
    23    23    24   ar
    24    24    16   ar
    25    24    19    1
    26     6     1    1
    27    11     7    1
    28    13     9    1
    29    20    25    1
@<TRIPOS>MOLECULE
*****
 25 29 0 0 0
SMALL
GASTEIGER

@<TRIPOS>ATOM
      1 C         142.1179  141.8779  165.7726 C.3     1  UNL1        0.1676
      2 C         142.8384  141.8420  164.4574 C.3     1  UNL1        0.0450
      3 C         142.3594  142.6899  163.3165 C.3     1  UNL1        0.0197
      4 C         141.1600  143.5736  163.4907 C.3     1  UNL1        0.0578
      5 C         140.4395  143.6095  164.8058 C.3     1  UNL1        0.0197
      6 C         140.9185  142.7616  165.9468 C.3     1  UNL1        0.0450
      7 N         140.6810  144.4215  162.3497 N.3     1  UNL1       -0.2709
      8 C         140.1344  145.8144  162.4551 C.3     1  UNL1        0.1020
      9 C         139.7802  146.2790  161.0736 C.3     1  UNL1        0.1326
     10 C         140.3370  145.1310  161.8624 C.3     1  UNL1        0.0495
     11 C         140.6646  144.0252  160.9031 C.3     1  UNL1        0.0898
     12 C         140.3104  144.4899  159.5216 C.3     1  UNL1        0.1580
     13 O         139.7637  145.8828  159.6269 O.3     1  UNL1       -0.3533
     14 O         142.5969  141.0300  166.9135 O.3     1  UNL1       -0.4639
     15 C         139.7591  139.7106  167.6250 C.3     1  UNL1        0.0329
     16 C         140.0934  140.4142  168.9069 C.ar    1  UNL1        0.0047
     17 C         139.2500  140.4349  170.1471 C.ar    1  UNL1        0.0965
     18 N         139.9652  141.2540  171.1804 N.ar    1  UNL1       -0.2271
     19 C         141.2506  141.7395  170.5787 C.ar    1  UNL1        0.1459
     20 N         142.3591  142.5872  171.1288 N.ar    1  UNL1       -0.3213
     21 C         143.5469  142.9158  170.2737 C.ar    1  UNL1        0.1791
     22 N         143.6262  142.3968  168.8686 N.ar    1  UNL1       -0.1912
     23 C         142.5176  141.5491  168.3186 C.ar    1  UNL1        0.2287
     24 C         141.3299  141.2205  169.1736 C.ar    1  UNL1        0.0846
     25 H         142.3071  142.9279  172.0510 H       1  UNL1        0.1689
@<TRIPOS>BOND
     1    15    16    1
     2    16    17   ar
     3    17    18   ar
     4    18    19   ar
     5    19    20   ar
     6    20    21   ar
     7    21    22   ar
     8    22    23   ar
     9    23    14    1
    10     1    14    1
    11     1     2    1
    12     2     3    1
    13     3     4    1
    14     4     7    1
    15     7     8    1
    16     9     8    1
    17     9    10    1
    18    10    11    1
    19    11    12    1
    20    12    13    1
    21     4     5    1
    22     5     6    1
    23    23    24   ar
    24    24    16   ar
    25    24    19    1
    26     6     1    1
    27    11     7    1
    28    13     9    1
    29    20    25    1
@<TRIPOS>MOLECULE
*****
 25 29 0 0 0
SMALL
GASTEIGER

@<TRIPOS>ATOM
      1 C         143.2443  143.1433  164.4554 C.3     1  UNL1        0.1676
      2 C         141.7520  143.2929  164.4294 C.3     1  UNL1        0.0450
      3 C         140.9488  143.0171  165.6658 C.3     1  UNL1        0.0197
      4 C         141.6380  142.5915  166.9284 C.3     1  UNL1        0.0578
      5 C         143.1302  142.4419  166.9545 C.3     1  UNL1        0.0197
      6 C         143.9334  142.7177  165.7180 C.3     1  UNL1        0.0450
      7 N         140.8347  142.3157  168.1648 N.3     1  UNL1       -0.2709
      8 C         140.6115  143.2681  169.3019 C.3     1  UNL1        0.1020
      9 C         139.7525  142.5800  170.3211 C.3     1  UNL1        0.1326
     10 C         140.4214  142.4166  168.9884 C.3     1  UNL1        0.0495
     11 C         140.1138  141.0389  168.4811 C.3     1  UNL1        0.0898
     12 C         139.2548  140.3508  169.5003 C.3     1  UNL1        0.1580
     13 O         139.0316  141.3032  170.6375 O.3     1  UNL1       -0.3533
     14 O         144.0475  143.4191  163.2190 O.3     1  UNL1       -0.4639
     15 C         144.9280  140.3340  163.3004 C.3     1  UNL1        0.0329
     16 C         144.2601  140.4207  161.9601 C.ar    1  UNL1        0.0047
     17 C         144.0969  139.2953  160.9819 C.ar    1  UNL1        0.0965
     18 N         143.3741  139.8272  159.7800 N.ar    1  UNL1       -0.2271
     19 C         143.0906  141.2813  160.0153 C.ar    1  UNL1        0.1459
     20 N         142.4046  142.3186  159.1767 N.ar    1  UNL1       -0.3213
     21 C         142.2663  143.7228  159.6856 C.ar    1  UNL1        0.1791
     22 N         142.8139  144.0897  161.0330 N.ar    1  UNL1       -0.1912
     23 C         143.4999  143.0523  161.8716 C.ar    1  UNL1        0.2287
     24 C         143.6382  141.6481  161.3627 C.ar    1  UNL1        0.0846
     25 H         142.0452  142.0779  158.2924 H       1  UNL1        0.1689
@<TRIPOS>BOND
     1    15    16    1
     2    16    17   ar
     3    17    18   ar
     4    18    19   ar
     5    19    20   ar
     6    20    21   ar
     7    21    22   ar
     8    22    23   ar
     9    23    14    1
    10     1    14    1
    11     1     2    1
    12     2     3    1
    13     3     4    1
    14     4     7    1
    15     7     8    1
    16     9     8    1
    17     9    10    1
    18    10    11    1
    19    11    12    1
    20    12    13    1
    21     4     5    1
    22     5     6    1
    23    23    24   ar
    24    24    16   ar
    25    24    19    1
    26     6     1    1
    27    11     7    1
    28    13     9    1
    29    20    25    1
@<TRIPOS>MOLECULE
*****
 25 29 0 0 0
SMALL
GASTEIGER

@<TRIPOS>ATOM
      1 C         139.3854  142.1387  164.2951 C.3     1  UNL1        0.1676
      2 C         139.0797  140.7954  164.8886 C.3     1  UNL1        0.0450
      3 C         139.3993  140.5212  166.3282 C.3     1  UNL1        0.0197
      4 C         140.0247  141.5902  167.1745 C.3     1  UNL1        0.0578
      5 C         140.3305  142.9334  166.5811 C.3     1  UNL1        0.0197
      6 C         140.0108  143.2077  165.1414 C.3     1  UNL1        0.0450
      7 N         140.3444  141.3159  168.6141 N.3     1  UNL1       -0.2709
      8 C         139.6160  140.3608  169.5126 C.3     1  UNL1        0.1020
      9 C         140.2701  140.4032  170.8618 C.3     1  UNL1        0.1326
     10 C         140.3160  140.9673  169.4726 C.3     1  UNL1        0.0495
     11 C         141.4487  141.9486  169.4080 C.3     1  UNL1        0.0898
     12 C         142.1027  141.9910  170.7573 C.3     1  UNL1        0.1580
     13 O         141.3743  141.0358  171.6558 O.3     1  UNL1       -0.3533
     14 O         139.0657  142.4130  162.8555 O.3     1  UNL1       -0.4639
     15 C         141.5887  140.5581  162.1527 C.3     1  UNL1        0.0329
     16 C         141.9818  141.8559  161.5116 C.ar    1  UNL1        0.0047
     17 C         143.2517  142.1176  160.7573 C.ar    1  UNL1        0.0965
     18 N         143.2288  143.5433  160.2917 N.ar    1  UNL1       -0.2271
     19 C         141.9448  144.1627  160.7581 C.ar    1  UNL1        0.1459
     20 N         141.3778  145.5416  160.5937 N.ar    1  UNL1       -0.3213
     21 C         140.0401  145.8776  161.1833 C.ar    1  UNL1        0.1791
     22 N         139.2694  144.8348  161.9372 N.ar    1  UNL1       -0.1912
     23 C         139.8364  143.4559  162.1016 C.ar    1  UNL1        0.2287
     24 C         141.1741  143.1198  161.5120 C.ar    1  UNL1        0.0846
     25 H         141.8836  146.2261  160.0989 H       1  UNL1        0.1689
@<TRIPOS>BOND
     1    15    16    1
     2    16    17   ar
     3    17    18   ar
     4    18    19   ar
     5    19    20   ar
     6    20    21   ar
     7    21    22   ar
     8    22    23   ar
     9    23    14    1
    10     1    14    1
    11     1     2    1
    12     2     3    1
    13     3     4    1
    14     4     7    1
    15     7     8    1
    16     9     8    1
    17     9    10    1
    18    10    11    1
    19    11    12    1
    20    12    13    1
    21     4     5    1
    22     5     6    1
    23    23    24   ar
    24    24    16   ar
    25    24    19    1
    26     6     1    1
    27    11     7    1
    28    13     9    1
    29    20    25    1
@<TRIPOS>MOLECULE
*****
 25 29 0 0 0
SMALL
GASTEIGER

@<TRIPOS>ATOM
      1 C         143.9492  140.0833  164.6571 C.3     1  UNL1        0.1676
      2 C         143.5460  138.8360  165.3863 C.3     1  UNL1        0.0450
      3 C         142.6401  138.9238  166.5785 C.3     1  UNL1        0.0197
      4 C         142.1373  140.2590  167.0417 C.3     1  UNL1        0.0578
      5 C         142.5405  141.5063  166.3126 C.3     1  UNL1        0.0197
      6 C         143.4464  141.4185  165.1203 C.3     1  UNL1        0.0450
      7 N         141.2314  140.3468  168.2341 N.3     1  UNL1       -0.2709
      8 C         139.7450  140.1450  168.2289 C.3     1  UNL1        0.1020
      9 C         139.2478  140.3253  169.6325 C.3     1  UNL1        0.1326
     10 C         140.4738  140.3386  168.7682 C.3     1  UNL1        0.0495
     11 C         141.6529  140.6519  169.6410 C.3     1  UNL1        0.0898
     12 C         141.1557  140.8322  171.0446 C.3     1  UNL1        0.1580
     13 O         139.6692  140.6304  171.0394 O.3     1  UNL1       -0.3533
     14 O         144.8550  139.9955  163.4648 O.3     1  UNL1       -0.4639
     15 C         144.8292  142.9131  162.1282 C.3     1  UNL1        0.0329
     16 C         144.2922  142.0666  161.0124 C.ar    1  UNL1        0.0047
     17 C         143.8777  142.5550  159.6561 C.ar    1  UNL1        0.0965
     18 N         143.4048  141.3732  158.8625 N.ar    1  UNL1       -0.2271
     19 C         143.5269  140.1545  159.7284 C.ar    1  UNL1        0.1459
     20 N         143.2096  138.7099  159.4786 N.ar    1  UNL1       -0.3213
     21 C         143.4407  137.6939  160.5576 C.ar    1  UNL1        0.1791
     22 N         143.9892  138.1224  161.8863 N.ar    1  UNL1       -0.1912
     23 C         144.3066  139.5670  162.1361 C.ar    1  UNL1        0.2287
     24 C         144.0754  140.5830  161.0571 C.ar    1  UNL1        0.0846
     25 H         142.8496  138.4286  158.6065 H       1  UNL1        0.1689
@<TRIPOS>BOND
     1    15    16    1
     2    16    17   ar
     3    17    18   ar
     4    18    19   ar
     5    19    20   ar
     6    20    21   ar
     7    21    22   ar
     8    22    23   ar
     9    23    14    1
    10     1    14    1
    11     1     2    1
    12     2     3    1
    13     3     4    1
    14     4     7    1
    15     7     8    1
    16     9     8    1
    17     9    10    1
    18    10    11    1
    19    11    12    1
    20    12    13    1
    21     4     5    1
    22     5     6    1
    23    23    24   ar
    24    24    16   ar
    25    24    19    1
    26     6     1    1
    27    11     7    1
    28    13     9    1
    29    20    25    1
@<TRIPOS>MOLECULE
*****
 25 29 0 0 0
SMALL
GASTEIGER

@<TRIPOS>ATOM
      1 C         142.4862  142.2359  164.5324 C.3     1  UNL1        0.1676
      2 C         143.5189  142.5286  165.5802 C.3     1  UNL1        0.0450
      3 C         143.1608  142.4326  167.0337 C.3     1  UNL1        0.0197
      4 C         141.7699  142.0440  167.4393 C.3     1  UNL1        0.0578
      5 C         140.7373  141.7512  166.3916 C.3     1  UNL1        0.0197
      6 C         141.0953  141.8472  164.9381 C.3     1  UNL1        0.0450
      7 N         141.4118  141.9480  168.8928 N.3     1  UNL1       -0.2709
      8 C         142.0120  140.9997  169.8880 C.3     1  UNL1        0.1020
      9 C         141.3618  141.2491  171.2165 C.3     1  UNL1        0.1326
     10 C         141.3928  141.6810  169.7803 C.3     1  UNL1        0.0495
     11 C         140.3907  142.7836  169.6062 C.3     1  UNL1        0.0898
     12 C         139.7404  143.0331  170.9348 C.3     1  UNL1        0.1580
     13 O         140.3406  142.0847  171.9300 O.3     1  UNL1       -0.3533
     14 O         142.8443  142.3318  163.0790 O.3     1  UNL1       -0.4639
     15 C         142.1080  145.3992  163.6700 C.3     1  UNL1        0.0329
     16 C         141.1487  145.0672  162.5657 C.ar    1  UNL1        0.0047
     17 C         140.1419  146.0009  161.9620 C.ar    1  UNL1        0.0965
     18 N         139.3987  145.2539  160.8944 N.ar    1  UNL1       -0.2271
     19 C         139.9462  143.8585  160.8384 C.ar    1  UNL1        0.1459
     20 N         139.5996  142.6781  159.9802 N.ar    1  UNL1       -0.3213
     21 C         140.3346  141.3823  160.1550 C.ar    1  UNL1        0.1791
     22 N         141.4161  141.2668  161.1879 N.ar    1  UNL1       -0.1912
     23 C         141.7627  142.4473  162.0461 C.ar    1  UNL1        0.2287
     24 C         141.0277  143.7431  161.8713 C.ar    1  UNL1        0.0846
     25 H         138.8897  142.7538  159.3023 H       1  UNL1        0.1689
@<TRIPOS>BOND
     1    15    16    1
     2    16    17   ar
     3    17    18   ar
     4    18    19   ar
     5    19    20   ar
     6    20    21   ar
     7    21    22   ar
     8    22    23   ar
     9    23    14    1
    10     1    14    1
    11     1     2    1
    12     2     3    1
    13     3     4    1
    14     4     7    1
    15     7     8    1
    16     9     8    1
    17     9    10    1
    18    10    11    1
    19    11    12    1
    20    12    13    1
    21     4     5    1
    22     5     6    1
    23    23    24   ar
    24    24    16   ar
    25    24    19    1
    26     6     1    1
    27    11     7    1
    28    13     9    1
    29    20    25    1
