@<TRIPOS>MOLECULE
*****
 32 35 0 0 0
SMALL
GASTEIGER

@<TRIPOS>ATOM
      1 O         143.2305  138.4043  164.1618 O.3     1  UNL1       -0.3470
      2 C         143.3280  139.2527  165.3950 C.3     1  UNL1        0.1467
      3 C         144.3071  144.1663  162.6128 C.3     1  UNL1        0.0896
      4 N         143.9257  143.0243  163.5074 N.3     1  UNL1       -0.2715
      5 C         143.1185  143.2790  164.7458 C.3     1  UNL1        0.0725
      6 C         142.7371  142.1370  165.6405 C.3     1  UNL1        0.0238
      7 C         143.1627  140.7404  165.2968 C.3     1  UNL1        0.0489
      8 C         143.9699  140.4857  164.0584 C.3     1  UNL1        0.0238
      9 C         144.3513  141.6277  163.1637 C.3     1  UNL1        0.0725
     10 C         142.4130  140.4784  166.5693 C.ar    1  UNL1       -0.0202
     11 C         141.0873  141.1382  166.8081 C.ar    1  UNL1       -0.0019
     12 C         140.3375  140.8763  168.0806 C.ar    1  UNL1        0.0293
     13 C         140.9135  139.9545  169.1142 C.ar    1  UNL1        0.1401
     14 F         140.1637  139.6926  170.3868 F       1  UNL1       -0.2042
     15 C         142.2392  139.2947  168.8755 C.ar    1  UNL1        0.0293
     16 C         142.9890  139.5566  167.6030 C.ar    1  UNL1       -0.0019
     17 C         141.9004  137.8654  163.7255 C.3     1  UNL1        0.1874
     18 C         140.6359  138.5378  164.1716 C.ar    1  UNL1        0.0883
     19 C         139.7926  137.9138  165.2438 C.ar    1  UNL1        0.0211
     20 C         138.5282  138.5863  165.6898 C.ar    1  UNL1        0.0738
     21 C         138.1069  139.8826  165.0637 C.ar    1  UNL1        0.0186
     22 C         138.9502  140.5066  163.9914 C.ar    1  UNL1        0.0583
     23 N         140.2146  139.8342  163.5454 N.ar    1  UNL1       -0.2515
     24 C         138.5289  141.8029  163.3653 C.3     1  UNL1        0.0403
     25 C         137.8699  142.5502  162.2440 C.3     1  UNL1        0.0063
     26 C         138.4581  143.3007  163.4019 C.3     1  UNL1        0.0056
     27 C         138.1453  144.7077  162.9863 C.3     1  UNL1        0.0004
     28 C         139.1549  143.5626  164.7043 C.3     1  UNL1        0.0004
     29 C         137.6849  137.9624  166.7621 C.3     1  UNL1        0.4187
     30 F         136.8416  137.3385  167.8343 F       1  UNL1       -0.1659
     31 F         137.9026  136.6116  166.1473 F       1  UNL1       -0.1659
     32 F         137.4672  139.3132  167.3768 F       1  UNL1       -0.1659
@<TRIPOS>BOND
     1     3     4    1
     2     4     5    1
     3     5     6    1
     4     6     7    1
     5     7     2    1
     6     2     1    1
     7     1    17    1
     8    17    18    1
     9    18    19   ar
    10    19    20   ar
    11    20    29    1
    12    29    30    1
    13    29    31    1
    14    29    32    1
    15    20    21   ar
    16    21    22   ar
    17    22    24    1
    18    24    25    1
    19    25    26    1
    20    26    27    1
    21    26    28    1
    22    22    23   ar
    23     7    10    1
    24    10    11   ar
    25    11    12   ar
    26    12    13   ar
    27    13    14    1
    28    13    15   ar
    29    15    16   ar
    30     7     8    1
    31     8     9    1
    32     9     4    1
    33    23    18   ar
    34    16    10   ar
    35    26    24    1
@<TRIPOS>MOLECULE
*****
 32 35 0 0 0
SMALL
GASTEIGER

@<TRIPOS>ATOM
      1 O         138.8843  143.5468  164.7422 O.3     1  UNL1       -0.3470
      2 C         139.8977  143.3627  165.8327 C.3     1  UNL1        0.1467
      3 C         144.4905  143.9353  162.4533 C.3     1  UNL1        0.0896
      4 N         143.4298  143.6184  163.4654 N.3     1  UNL1       -0.2715
      5 C         143.7049  142.6239  164.5540 C.3     1  UNL1        0.0725
      6 C         142.6442  142.3071  165.5662 C.3     1  UNL1        0.0238
      7 C         141.3082  142.9848  165.4897 C.3     1  UNL1        0.0489
      8 C         141.0331  143.9794  164.4011 C.3     1  UNL1        0.0238
      9 C         142.0938  144.2962  163.3890 C.3     1  UNL1        0.0725
     10 C         141.0935  142.1215  166.6974 C.ar    1  UNL1       -0.0202
     11 C         141.4773  140.6719  166.6610 C.ar    1  UNL1       -0.0019
     12 C         141.2627  139.8085  167.8686 C.ar    1  UNL1        0.0293
     13 C         140.6642  140.3948  169.1128 C.ar    1  UNL1        0.1401
     14 F         140.4495  139.5315  170.3206 F       1  UNL1       -0.2042
     15 C         140.2804  141.8444  169.1494 C.ar    1  UNL1        0.0293
     16 C         140.4951  142.7078  167.9416 C.ar    1  UNL1       -0.0019
     17 C         138.0056  142.4017  164.3338 C.3     1  UNL1        0.1874
     18 C         138.5117  140.9936  164.4385 C.ar    1  UNL1        0.0883
     19 C         137.9352  140.0637  165.4648 C.ar    1  UNL1        0.0211
     20 C         138.4414  138.6556  165.5694 C.ar    1  UNL1        0.0738
     21 C         139.5240  138.1773  164.6479 C.ar    1  UNL1        0.0186
     22 C         140.1005  139.1071  163.6217 C.ar    1  UNL1        0.0583
     23 N         139.5944  140.5153  163.5170 N.ar    1  UNL1       -0.2515
     24 C         141.1831  138.6288  162.7002 C.3     1  UNL1        0.0403
     25 C         141.6050  138.0445  161.3846 C.3     1  UNL1        0.0063
     26 C         142.6362  138.3844  162.4196 C.3     1  UNL1        0.0056
     27 C         143.8814  137.9724  161.6917 C.3     1  UNL1        0.0004
     28 C         143.2349  138.8675  163.7073 C.3     1  UNL1        0.0004
     29 C         137.8649  137.7257  166.5956 C.3     1  UNL1        0.4187
     30 F         137.2885  136.7959  167.6218 F       1  UNL1       -0.1659
     31 F         137.6816  138.8788  167.5374 F       1  UNL1       -0.1659
     32 F         138.0483  136.5727  165.6539 F       1  UNL1       -0.1659
@<TRIPOS>BOND
     1     3     4    1
     2     4     5    1
     3     5     6    1
     4     6     7    1
     5     7     2    1
     6     2     1    1
     7     1    17    1
     8    17    18    1
     9    18    19   ar
    10    19    20   ar
    11    20    29    1
    12    29    30    1
    13    29    31    1
    14    29    32    1
    15    20    21   ar
    16    21    22   ar
    17    22    24    1
    18    24    25    1
    19    25    26    1
    20    26    27    1
    21    26    28    1
    22    22    23   ar
    23     7    10    1
    24    10    11   ar
    25    11    12   ar
    26    12    13   ar
    27    13    14    1
    28    13    15   ar
    29    15    16   ar
    30     7     8    1
    31     8     9    1
    32     9     4    1
    33    23    18   ar
    34    16    10   ar
    35    26    24    1
@<TRIPOS>MOLECULE
*****
 32 35 0 0 0
SMALL
GASTEIGER

@<TRIPOS>ATOM
      1 O         140.1590  141.0975  162.0363 O.3     1  UNL1       -0.3470
      2 C         141.6193  140.7798  162.1645 C.3     1  UNL1        0.1467
      3 C         142.6659  137.4648  157.6084 C.3     1  UNL1        0.0896
      4 N         142.4984  138.1455  158.9346 N.3     1  UNL1       -0.2715
      5 C         142.9750  137.4735  160.1880 C.3     1  UNL1        0.0725
      6 C         142.8076  138.1542  161.5141 C.3     1  UNL1        0.0238
      7 C         142.1635  139.5069  161.5868 C.3     1  UNL1        0.0489
      8 C         141.6869  140.1789  160.3334 C.3     1  UNL1        0.0238
      9 C         141.8543  139.4982  159.0072 C.3     1  UNL1        0.0725
     10 C         142.4512  139.2770  163.0409 C.ar    1  UNL1       -0.0202
     11 C         143.3763  140.1997  163.7775 C.ar    1  UNL1       -0.0019
     12 C         143.6639  139.9698  165.2316 C.ar    1  UNL1        0.0293
     13 C         143.0264  138.8171  165.9491 C.ar    1  UNL1        0.1401
     14 F         143.3141  138.5871  167.4032 F       1  UNL1       -0.2042
     15 C         142.1013  137.8942  165.2125 C.ar    1  UNL1        0.0293
     16 C         141.8136  138.1242  163.7584 C.ar    1  UNL1       -0.0019
     17 C         139.4233  141.7210  163.1853 C.3     1  UNL1        0.1874
     18 C         139.5276  141.1216  164.5563 C.ar    1  UNL1        0.0883
     19 C         138.6984  139.9246  164.9166 C.ar    1  UNL1        0.0211
     20 C         138.8027  139.3253  166.2877 C.ar    1  UNL1        0.0738
     21 C         139.7361  139.9228  167.2985 C.ar    1  UNL1        0.0186
     22 C         140.5653  141.1197  166.9382 C.ar    1  UNL1        0.0583
     23 N         140.4611  141.7191  165.5671 N.ar    1  UNL1       -0.2515
     24 C         141.4987  141.7172  167.9489 C.3     1  UNL1        0.0403
     25 C         142.8874  141.9014  168.4854 C.3     1  UNL1        0.0063
     26 C         141.7270  142.5679  169.1631 C.3     1  UNL1        0.0056
     27 C         142.4448  143.2720  170.2762 C.3     1  UNL1        0.0004
     28 C         140.3173  142.9898  169.4542 C.3     1  UNL1        0.0004
     29 C         137.9735  138.1283  166.6481 C.3     1  UNL1        0.4187
     30 F         137.1444  136.9314  167.0084 F       1  UNL1       -0.1659
     31 F         138.4982  137.4026  165.4447 F       1  UNL1       -0.1659
     32 F         137.4489  138.8541  167.8515 F       1  UNL1       -0.1659
@<TRIPOS>BOND
     1     3     4    1
     2     4     5    1
     3     5     6    1
     4     6     7    1
     5     7     2    1
     6     2     1    1
     7     1    17    1
     8    17    18    1
     9    18    19   ar
    10    19    20   ar
    11    20    29    1
    12    29    30    1
    13    29    31    1
    14    29    32    1
    15    20    21   ar
    16    21    22   ar
    17    22    24    1
    18    24    25    1
    19    25    26    1
    20    26    27    1
    21    26    28    1
    22    22    23   ar
    23     7    10    1
    24    10    11   ar
    25    11    12   ar
    26    12    13   ar
    27    13    14    1
    28    13    15   ar
    29    15    16   ar
    30     7     8    1
    31     8     9    1
    32     9     4    1
    33    23    18   ar
    34    16    10   ar
    35    26    24    1
@<TRIPOS>MOLECULE
*****
 32 35 0 0 0
SMALL
GASTEIGER

@<TRIPOS>ATOM
      1 O         141.7277  137.8008  162.4496 O.3     1  UNL1       -0.3470
      2 C         140.2636  137.6536  162.7408 C.3     1  UNL1        0.1467
      3 C         138.1700  140.4105  158.1737 C.3     1  UNL1        0.0896
      4 N         138.5402  139.8138  159.4992 N.3     1  UNL1       -0.2715
      5 C         137.7829  140.2023  160.7343 C.3     1  UNL1        0.0725
      6 C         138.1531  139.6057  162.0598 C.3     1  UNL1        0.0238
      7 C         139.2806  138.6205  162.1502 C.3     1  UNL1        0.0489
      8 C         140.0378  138.2320  160.9151 C.3     1  UNL1        0.0238
      9 C         139.6677  138.8286  159.5896 C.3     1  UNL1        0.0725
     10 C         138.8647  138.6732  163.5905 C.ar    1  UNL1       -0.0202
     11 C         138.8520  137.4195  164.4138 C.ar    1  UNL1       -0.0019
     12 C         138.4362  137.4722  165.8540 C.ar    1  UNL1        0.0293
     13 C         138.0329  138.7787  166.4709 C.ar    1  UNL1        0.1401
     14 F         137.6170  138.8314  167.9111 F       1  UNL1       -0.2042
     15 C         138.0455  140.0325  165.6475 C.ar    1  UNL1        0.0293
     16 C         138.4614  139.9797  164.2073 C.ar    1  UNL1       -0.0019
     17 C         142.6510  138.3407  163.5013 C.3     1  UNL1        0.1874
     18 C         142.1924  139.4453  164.4065 C.ar    1  UNL1        0.0883
     19 C         141.9605  139.1737  165.8634 C.ar    1  UNL1        0.0211
     20 C         141.5019  140.2784  166.7685 C.ar    1  UNL1        0.0738
     21 C         141.2752  141.6547  166.2168 C.ar    1  UNL1        0.0186
     22 C         141.5071  141.9264  164.7599 C.ar    1  UNL1        0.0583
     23 N         141.9657  140.8217  163.8548 N.ar    1  UNL1       -0.2515
     24 C         141.2804  143.3027  164.2083 C.3     1  UNL1        0.0403
     25 C         141.7494  144.7123  164.0002 C.3     1  UNL1        0.0063
     26 C         140.4190  144.2771  163.4611 C.3     1  UNL1        0.0056
     27 C         139.9647  145.5570  162.8242 C.3     1  UNL1        0.0004
     28 C         139.2463  143.3974  163.1431 C.3     1  UNL1        0.0004
     29 C         141.2699  140.0068  168.2254 C.3     1  UNL1        0.4187
     30 F         141.0379  139.7353  169.6822 F       1  UNL1       -0.1659
     31 F         140.0503  140.8796  168.1938 F       1  UNL1       -0.1659
     32 F         142.4895  139.1341  168.2568 F       1  UNL1       -0.1659
@<TRIPOS>BOND
     1     3     4    1
     2     4     5    1
     3     5     6    1
     4     6     7    1
     5     7     2    1
     6     2     1    1
     7     1    17    1
     8    17    18    1
     9    18    19   ar
    10    19    20   ar
    11    20    29    1
    12    29    30    1
    13    29    31    1
    14    29    32    1
    15    20    21   ar
    16    21    22   ar
    17    22    24    1
    18    24    25    1
    19    25    26    1
    20    26    27    1
    21    26    28    1
    22    22    23   ar
    23     7    10    1
    24    10    11   ar
    25    11    12   ar
    26    12    13   ar
    27    13    14    1
    28    13    15   ar
    29    15    16   ar
    30     7     8    1
    31     8     9    1
    32     9     4    1
    33    23    18   ar
    34    16    10   ar
    35    26    24    1
@<TRIPOS>MOLECULE
*****
 32 35 0 0 0
SMALL
GASTEIGER

@<TRIPOS>ATOM
      1 O         143.5022  138.7155  163.5851 O.3     1  UNL1       -0.3470
      2 C         142.2476  137.9379  163.3186 C.3     1  UNL1        0.1467
      3 C         141.7377  138.3477  157.6252 C.3     1  UNL1        0.0896
      4 N         141.6294  138.3157  159.1210 N.3     1  UNL1       -0.2715
      5 C         140.3387  138.6894  159.7876 C.3     1  UNL1        0.0725
      6 C         140.2304  138.6573  161.2834 C.3     1  UNL1        0.0238
      7 C         141.4127  138.2517  162.1124 C.3     1  UNL1        0.0489
      8 C         142.7034  137.8780  161.4458 C.3     1  UNL1        0.0238
      9 C         142.8117  137.9100  159.9500 C.3     1  UNL1        0.0725
     10 C         140.4119  138.5164  163.1980 C.ar    1  UNL1       -0.0202
     11 C         139.7004  139.8355  163.2567 C.ar    1  UNL1       -0.0019
     12 C         138.6996  140.1003  164.3422 C.ar    1  UNL1        0.0293
     13 C         138.4104  139.0458  165.3690 C.ar    1  UNL1        0.1401
     14 F         137.4096  139.3105  166.4546 F       1  UNL1       -0.2042
     15 C         139.1219  137.7266  165.3104 C.ar    1  UNL1        0.0293
     16 C         140.1227  137.4619  164.2248 C.ar    1  UNL1       -0.0019
     17 C         143.6840  139.4191  164.8974 C.3     1  UNL1        0.1874
     18 C         142.7026  140.4685  165.3280 C.ar    1  UNL1        0.0883
     19 C         141.9026  140.2775  166.5825 C.ar    1  UNL1        0.0211
     20 C         140.9212  141.3270  167.0131 C.ar    1  UNL1        0.0738
     21 C         140.7396  142.5672  166.1893 C.ar    1  UNL1        0.0186
     22 C         141.5395  142.7582  164.9348 C.ar    1  UNL1        0.0583
     23 N         142.5210  141.7088  164.5042 N.ar    1  UNL1       -0.2515
     24 C         141.3580  143.9984  164.1110 C.3     1  UNL1        0.0403
     25 C         141.8555  145.3367  163.6509 C.3     1  UNL1        0.0063
     26 C         140.5461  144.8086  163.1443 C.3     1  UNL1        0.0056
     27 C         140.1400  145.9384  162.2450 C.3     1  UNL1        0.0004
     28 C         139.3778  143.8881  162.9500 C.3     1  UNL1        0.0004
     29 C         140.1212  141.1361  168.2676 C.3     1  UNL1        0.4187
     30 F         139.3213  140.9453  169.5220 F       1  UNL1       -0.1659
     31 F         140.1399  142.6172  168.5048 F       1  UNL1       -0.1659
     32 F         140.1025  139.6551  168.0304 F       1  UNL1       -0.1659
@<TRIPOS>BOND
     1     3     4    1
     2     4     5    1
     3     5     6    1
     4     6     7    1
     5     7     2    1
     6     2     1    1
     7     1    17    1
     8    17    18    1
     9    18    19   ar
    10    19    20   ar
    11    20    29    1
    12    29    30    1
    13    29    31    1
    14    29    32    1
    15    20    21   ar
    16    21    22   ar
    17    22    24    1
    18    24    25    1
    19    25    26    1
    20    26    27    1
    21    26    28    1
    22    22    23   ar
    23     7    10    1
    24    10    11   ar
    25    11    12   ar
    26    12    13   ar
    27    13    14    1
    28    13    15   ar
    29    15    16   ar
    30     7     8    1
    31     8     9    1
    32     9     4    1
    33    23    18   ar
    34    16    10   ar
    35    26    24    1
@<TRIPOS>MOLECULE
*****
 32 35 0 0 0
SMALL
GASTEIGER

@<TRIPOS>ATOM
      1 O         138.5737  138.6313  163.0091 O.3     1  UNL1       -0.3470
      2 C         138.7185  140.0905  162.6929 C.3     1  UNL1        0.1467
      3 C         143.3622  139.4691  159.3926 C.3     1  UNL1        0.0896
      4 N         142.2500  139.8532  160.3230 N.3     1  UNL1       -0.2715
      5 C         142.3074  141.1570  161.0624 C.3     1  UNL1        0.0725
      6 C         141.1952  141.5411  161.9928 C.3     1  UNL1        0.0238
      7 C         140.0258  140.6214  162.1838 C.3     1  UNL1        0.0489
      8 C         139.9684  139.3176  161.4443 C.3     1  UNL1        0.0238
      9 C         141.0806  138.9335  160.5139 C.3     1  UNL1        0.0725
     10 C         139.6291  141.7409  163.1000 C.ar    1  UNL1       -0.0202
     11 C         140.5258  142.1333  164.2366 C.ar    1  UNL1       -0.0019
     12 C         140.1292  143.2527  165.1529 C.ar    1  UNL1        0.0293
     13 C         138.8358  143.9796  164.9326 C.ar    1  UNL1        0.1401
     14 F         138.4391  145.0991  165.8489 F       1  UNL1       -0.2042
     15 C         137.9390  143.5872  163.7960 C.ar    1  UNL1        0.0293
     16 C         138.3356  142.4678  162.8797 C.ar    1  UNL1       -0.0019
     17 C         138.6734  138.1582  164.4291 C.3     1  UNL1        0.1874
     18 C         139.7288  138.7203  165.3346 C.ar    1  UNL1        0.0883
     19 C         141.1792  138.5537  164.9898 C.ar    1  UNL1        0.0211
     20 C         142.2346  139.1159  165.8953 C.ar    1  UNL1        0.0738
     21 C         141.8398  139.8445  167.1456 C.ar    1  UNL1        0.0186
     22 C         140.3895  140.0111  167.4904 C.ar    1  UNL1        0.0583
     23 N         139.3340  139.4490  166.5849 N.ar    1  UNL1       -0.2515
     24 C         139.9947  140.7397  168.7406 C.3     1  UNL1        0.0403
     25 C         139.3126  140.7520  170.0766 C.3     1  UNL1        0.0063
     26 C         139.9928  141.9893  169.5703 C.3     1  UNL1        0.0056
     27 C         139.7221  142.9218  170.7137 C.3     1  UNL1        0.0004
     28 C         140.7671  142.9029  168.6669 C.3     1  UNL1        0.0004
     29 C         143.6850  138.9494  165.5506 C.3     1  UNL1        0.4187
     30 F         145.1353  138.7829  165.2059 F       1  UNL1       -0.1659
     31 F         143.7420  137.7078  166.3905 F       1  UNL1       -0.1659
     32 F         143.6279  140.1909  164.7108 F       1  UNL1       -0.1659
@<TRIPOS>BOND
     1     3     4    1
     2     4     5    1
     3     5     6    1
     4     6     7    1
     5     7     2    1
     6     2     1    1
     7     1    17    1
     8    17    18    1
     9    18    19   ar
    10    19    20   ar
    11    20    29    1
    12    29    30    1
    13    29    31    1
    14    29    32    1
    15    20    21   ar
    16    21    22   ar
    17    22    24    1
    18    24    25    1
    19    25    26    1
    20    26    27    1
    21    26    28    1
    22    22    23   ar
    23     7    10    1
    24    10    11   ar
    25    11    12   ar
    26    12    13   ar
    27    13    14    1
    28    13    15   ar
    29    15    16   ar
    30     7     8    1
    31     8     9    1
    32     9     4    1
    33    23    18   ar
    34    16    10   ar
    35    26    24    1
@<TRIPOS>MOLECULE
*****
 32 35 0 0 0
SMALL
GASTEIGER

@<TRIPOS>ATOM
      1 O         139.3071  144.1630  163.0965 O.3     1  UNL1       -0.3470
      2 C         140.8050  144.2089  163.1607 C.3     1  UNL1        0.1467
      3 C         142.2317  144.9936  157.6661 C.3     1  UNL1        0.0896
      4 N         142.0276  144.5999  159.0990 N.3     1  UNL1       -0.2715
      5 C         142.8121  143.4629  159.6834 C.3     1  UNL1        0.0725
      6 C         142.6080  143.0692  161.1164 C.3     1  UNL1        0.0238
      7 C         141.6194  143.8126  161.9649 C.3     1  UNL1        0.0489
      8 C         140.8349  144.9496  161.3805 C.3     1  UNL1        0.0238
      9 C         141.0390  145.3433  159.9475 C.3     1  UNL1        0.0725
     10 C         142.1211  142.8131  162.9646 C.ar    1  UNL1       -0.0202
     11 C         141.6615  141.3870  162.8948 C.ar    1  UNL1       -0.0019
     12 C         142.1632  140.3875  163.8944 C.ar    1  UNL1        0.0293
     13 C         143.1244  140.8142  164.9640 C.ar    1  UNL1        0.1401
     14 F         143.6261  139.8147  165.9637 F       1  UNL1       -0.2042
     15 C         143.5840  142.2403  165.0339 C.ar    1  UNL1        0.0293
     16 C         143.0823  143.2398  164.0342 C.ar    1  UNL1       -0.0019
     17 C         138.5174  143.7404  164.2998 C.3     1  UNL1        0.1874
     18 C         139.0413  142.6603  165.1992 C.ar    1  UNL1        0.0883
     19 C         138.5489  141.2518  165.0453 C.ar    1  UNL1        0.0211
     20 C         139.0728  140.1718  165.9447 C.ar    1  UNL1        0.0738
     21 C         140.0891  140.5001  166.9979 C.ar    1  UNL1        0.0186
     22 C         140.5816  141.9087  167.1517 C.ar    1  UNL1        0.0583
     23 N         140.0577  142.9888  166.2524 N.ar    1  UNL1       -0.2515
     24 C         141.5979  142.2370  168.2049 C.3     1  UNL1        0.0403
     25 C         142.9951  142.1296  168.7402 C.3     1  UNL1        0.0063
     26 C         141.9613  142.9130  169.4937 C.3     1  UNL1        0.0056
     27 C         142.7828  143.3724  170.6617 C.3     1  UNL1        0.0004
     28 C         140.6422  143.5368  169.8415 C.3     1  UNL1        0.0004
     29 C         138.5804  138.7632  165.7910 C.3     1  UNL1        0.4187
     30 F         138.0880  137.3547  165.6373 F       1  UNL1       -0.1659
     31 F         137.9982  138.8160  167.1724 F       1  UNL1       -0.1659
     32 F         139.1626  138.7105  164.4096 F       1  UNL1       -0.1659
@<TRIPOS>BOND
     1     3     4    1
     2     4     5    1
     3     5     6    1
     4     6     7    1
     5     7     2    1
     6     2     1    1
     7     1    17    1
     8    17    18    1
     9    18    19   ar
    10    19    20   ar
    11    20    29    1
    12    29    30    1
    13    29    31    1
    14    29    32    1
    15    20    21   ar
    16    21    22   ar
    17    22    24    1
    18    24    25    1
    19    25    26    1
    20    26    27    1
    21    26    28    1
    22    22    23   ar
    23     7    10    1
    24    10    11   ar
    25    11    12   ar
    26    12    13   ar
    27    13    14    1
    28    13    15   ar
    29    15    16   ar
    30     7     8    1
    31     8     9    1
    32     9     4    1
    33    23    18   ar
    34    16    10   ar
    35    26    24    1
@<TRIPOS>MOLECULE
*****
 32 35 0 0 0
SMALL
GASTEIGER

@<TRIPOS>ATOM
      1 O         138.4478  138.5877  164.2745 O.3     1  UNL1       -0.3470
      2 C         138.0966  139.8248  163.5023 C.3     1  UNL1        0.1467
      3 C         140.5616  138.5507  158.4881 C.3     1  UNL1        0.0896
      4 N         140.0190  139.1135  159.7682 N.3     1  UNL1       -0.2715
      5 C         140.3153  140.5340  160.1481 C.3     1  UNL1        0.0725
      6 C         139.7726  141.0968  161.4283 C.3     1  UNL1        0.0238
      7 C         138.9336  140.2391  162.3285 C.3     1  UNL1        0.0489
      8 C         138.6373  138.8186  161.9486 C.3     1  UNL1        0.0238
      9 C         139.1800  138.2558  160.6685 C.3     1  UNL1        0.0725
     10 C         138.9393  141.5158  163.1160 C.ar    1  UNL1       -0.0202
     11 C         137.6666  142.0292  163.7215 C.ar    1  UNL1       -0.0019
     12 C         137.6721  143.3057  164.5090 C.ar    1  UNL1        0.0293
     13 C         138.9505  144.0690  164.6911 C.ar    1  UNL1        0.1401
     14 F         138.9562  145.3456  165.4786 F       1  UNL1       -0.2042
     15 C         140.2233  143.5557  164.0857 C.ar    1  UNL1        0.0293
     16 C         140.2177  142.2790  163.2981 C.ar    1  UNL1       -0.0019
     17 C         138.8922  138.6962  165.7030 C.3     1  UNL1        0.1874
     18 C         139.9545  139.6840  166.0850 C.ar    1  UNL1        0.0883
     19 C         139.7064  140.6598  167.1969 C.ar    1  UNL1        0.0211
     20 C         140.7688  141.6475  167.5788 C.ar    1  UNL1        0.0738
     21 C         142.0791  141.6594  166.8489 C.ar    1  UNL1        0.0186
     22 C         142.3272  140.6836  165.7370 C.ar    1  UNL1        0.0583
     23 N         141.2649  139.6959  165.3550 N.ar    1  UNL1       -0.2515
     24 C         143.6376  140.6955  165.0071 C.3     1  UNL1        0.0403
     25 C         144.8564  139.9735  164.5139 C.3     1  UNL1        0.0063
     26 C         144.6884  141.4380  164.2361 C.3     1  UNL1        0.0056
     27 C         145.9498  141.7040  163.4691 C.3     1  UNL1        0.0004
     28 C         144.0823  142.8101  164.2247 C.3     1  UNL1        0.0004
     29 C         140.5207  142.6234  168.6907 C.3     1  UNL1        0.4187
     30 F         140.2727  143.5992  169.8025 F       1  UNL1       -0.1659
     31 F         140.9811  141.6028  169.6890 F       1  UNL1       -0.1659
     32 F         140.0604  143.6438  167.6923 F       1  UNL1       -0.1659
@<TRIPOS>BOND
     1     3     4    1
     2     4     5    1
     3     5     6    1
     4     6     7    1
     5     7     2    1
     6     2     1    1
     7     1    17    1
     8    17    18    1
     9    18    19   ar
    10    19    20   ar
    11    20    29    1
    12    29    30    1
    13    29    31    1
    14    29    32    1
    15    20    21   ar
    16    21    22   ar
    17    22    24    1
    18    24    25    1
    19    25    26    1
    20    26    27    1
    21    26    28    1
    22    22    23   ar
    23     7    10    1
    24    10    11   ar
    25    11    12   ar
    26    12    13   ar
    27    13    14    1
    28    13    15   ar
    29    15    16   ar
    30     7     8    1
    31     8     9    1
    32     9     4    1
    33    23    18   ar
    34    16    10   ar
    35    26    24    1
@<TRIPOS>MOLECULE
*****
 32 35 0 0 0
SMALL
GASTEIGER

@<TRIPOS>ATOM
      1 O         141.7840  138.0059  162.4334 O.3     1  UNL1       -0.3470
      2 C         140.3243  137.7847  162.6984 C.3     1  UNL1        0.1467
      3 C         138.0813  140.5577  158.2128 C.3     1  UNL1        0.0896
      4 N         138.4902  139.9507  159.5221 N.3     1  UNL1       -0.2715
      5 C         137.7477  140.3034  160.7768 C.3     1  UNL1        0.0725
      6 C         138.1566  139.6964  162.0861 C.3     1  UNL1        0.0238
      7 C         139.3081  138.7368  162.1408 C.3     1  UNL1        0.0489
      8 C         140.0506  138.3840  160.8861 C.3     1  UNL1        0.0238
      9 C         139.6417  138.9910  159.5768 C.3     1  UNL1        0.0725
     10 C         138.9185  138.7588  163.5891 C.ar    1  UNL1       -0.0202
     11 C         138.5802  140.0596  164.2550 C.ar    1  UNL1       -0.0019
     12 C         138.1905  140.0818  165.7033 C.ar    1  UNL1        0.0293
     13 C         138.1392  138.8030  166.4858 C.ar    1  UNL1        0.1401
     14 F         137.7496  138.8251  167.9341 F       1  UNL1       -0.2042
     15 C         138.4775  137.5022  165.8199 C.ar    1  UNL1        0.0293
     16 C         138.8672  137.4801  164.3715 C.ar    1  UNL1       -0.0019
     17 C         142.7030  138.3766  163.5595 C.3     1  UNL1        0.1874
     18 C         142.3242  139.4776  164.5052 C.ar    1  UNL1        0.0883
     19 C         142.1443  140.8764  163.9942 C.ar    1  UNL1        0.0211
     20 C         141.7655  141.9773  164.9399 C.ar    1  UNL1        0.0738
     21 C         141.5666  141.6796  166.3965 C.ar    1  UNL1        0.0186
     22 C         141.7466  140.2808  166.9075 C.ar    1  UNL1        0.0583
     23 N         142.1254  139.1798  165.9619 N.ar    1  UNL1       -0.2515
     24 C         141.5478  139.9830  168.3641 C.3     1  UNL1        0.0403
     25 C         142.0064  139.3191  169.6287 C.3     1  UNL1        0.0063
     26 C         140.7451  140.1311  169.6226 C.3     1  UNL1        0.0056
     27 C         140.3304  139.9789  171.0561 C.3     1  UNL1        0.0004
     28 C         139.6280  140.9960  169.1186 C.3     1  UNL1        0.0004
     29 C         141.5854  143.3761  164.4290 C.3     1  UNL1        0.4187
     30 F         141.4054  144.7749  163.9182 F       1  UNL1       -0.1659
     31 F         140.6834  143.6831  165.5875 F       1  UNL1       -0.1659
     32 F         142.4875  143.0691  163.2705 F       1  UNL1       -0.1659
@<TRIPOS>BOND
     1     3     4    1
     2     4     5    1
     3     5     6    1
     4     6     7    1
     5     7     2    1
     6     2     1    1
     7     1    17    1
     8    17    18    1
     9    18    19   ar
    10    19    20   ar
    11    20    29    1
    12    29    30    1
    13    29    31    1
    14    29    32    1
    15    20    21   ar
    16    21    22   ar
    17    22    24    1
    18    24    25    1
    19    25    26    1
    20    26    27    1
    21    26    28    1
    22    22    23   ar
    23     7    10    1
    24    10    11   ar
    25    11    12   ar
    26    12    13   ar
    27    13    14    1
    28    13    15   ar
    29    15    16   ar
    30     7     8    1
    31     8     9    1
    32     9     4    1
    33    23    18   ar
    34    16    10   ar
    35    26    24    1
