@<TRIPOS>MOLECULE
*****
 17 19 0 0 0
SMALL
GASTEIGER

@<TRIPOS>ATOM
      1 C         144.0258  139.1898  164.8945 C.3     1  UNL1        0.0896
      2 N         142.5684  138.9983  165.1929 N.3     1  UNL1       -0.2712
      3 C         141.6794  137.9424  164.6055 C.3     1  UNL1        0.0725
      4 C         140.3056  138.1205  165.1807 C.3     1  UNL1        0.0210
      5 C         138.9072  137.5779  165.1732 C.3     1  UNL1        0.0018
      6 C         138.0827  138.4086  166.1114 C.3     1  UNL1        0.0004
      7 C         138.9716  139.4644  166.6989 C.3     1  UNL1        0.0054
      8 C         140.3454  139.2864  166.1237 C.3     1  UNL1        0.0349
      9 C         141.7438  139.8289  166.1313 C.3     1  UNL1        0.0762
     10 C         140.3853  140.4522  167.0666 C.ar    1  UNL1       -0.0206
     11 C         140.3155  141.8520  166.5320 C.ar    1  UNL1       -0.0033
     12 C         140.3553  143.0178  167.4750 C.ar    1  UNL1        0.0119
     13 C         140.4650  142.7839  168.9526 C.ar    1  UNL1        0.0682
     14 CL        140.5048  143.9498  169.8955 Cl      1  UNL1       -0.0814
     15 C         140.5347  141.3842  169.4872 C.ar    1  UNL1        0.0679
     16 CL        140.6443  141.1503  170.9648 Cl      1  UNL1       -0.0814
     17 C         140.4949  140.2183  168.5442 C.ar    1  UNL1        0.0080
@<TRIPOS>BOND
     1     1     2    1
     2     2     3    1
     3     4     3    1
     4     4     5    1
     5     5     6    1
     6     6     7    1
     7     7     8    1
     8     8    10    1
     9    10    11   ar
    10    11    12   ar
    11    12    13   ar
    12    13    14    1
    13    13    15   ar
    14    15    16    1
    15    15    17   ar
    16     8     9    1
    17     9     2    1
    18     8     4    1
    19    17    10   ar
@<TRIPOS>MOLECULE
*****
 17 19 0 0 0
SMALL
GASTEIGER

@<TRIPOS>ATOM
      1 C         138.9266  138.7078  164.7321 C.3     1  UNL1        0.0896
      2 N         138.8972  140.2046  164.8238 N.3     1  UNL1       -0.2712
      3 C         137.9726  141.1161  164.0725 C.3     1  UNL1        0.0725
      4 C         138.2913  142.5277  164.4672 C.3     1  UNL1        0.0210
      5 C         137.9168  143.9633  164.2468 C.3     1  UNL1        0.0018
      6 C         138.8070  144.8116  165.1059 C.3     1  UNL1        0.0004
      7 C         139.7316  143.9003  165.8572 C.3     1  UNL1        0.0054
      8 C         139.4129  142.4887  165.4625 C.3     1  UNL1        0.0349
      9 C         139.7874  141.0530  165.6829 C.3     1  UNL1        0.0762
     10 C         140.5345  142.4497  166.4577 C.ar    1  UNL1       -0.0206
     11 C         141.9428  142.2258  165.9923 C.ar    1  UNL1       -0.0033
     12 C         143.0643  142.1868  166.9876 C.ar    1  UNL1        0.0119
     13 C         142.7776  142.3717  168.4483 C.ar    1  UNL1        0.0682
     14 CL        143.8992  142.3327  169.4435 Cl      1  UNL1       -0.0814
     15 C         141.3693  142.5956  168.9137 C.ar    1  UNL1        0.0679
     16 CL        141.0827  142.7805  170.3744 Cl      1  UNL1       -0.0814
     17 C         140.2478  142.6346  167.9184 C.ar    1  UNL1        0.0080
@<TRIPOS>BOND
     1     1     2    1
     2     2     3    1
     3     4     3    1
     4     4     5    1
     5     5     6    1
     6     6     7    1
     7     7     8    1
     8     8    10    1
     9    10    11   ar
    10    11    12   ar
    11    12    13   ar
    12    13    14    1
    13    13    15   ar
    14    15    16    1
    15    15    17   ar
    16     8     9    1
    17     9     2    1
    18     8     4    1
    19    17    10   ar
@<TRIPOS>MOLECULE
*****
 17 19 0 0 0
SMALL
GASTEIGER

@<TRIPOS>ATOM
      1 C         138.2839  139.9351  165.0850 C.3     1  UNL1        0.0896
      2 N         139.2848  139.9718  166.2015 N.3     1  UNL1       -0.2712
      3 C         138.9944  139.7361  167.6541 C.3     1  UNL1        0.0725
      4 C         140.2821  139.8694  168.4119 C.3     1  UNL1        0.0210
      5 C         140.8983  139.8060  169.7779 C.3     1  UNL1        0.0018
      6 C         142.3655  140.0849  169.6379 C.3     1  UNL1        0.0004
      7 C         142.6560  140.3206  168.1853 C.3     1  UNL1        0.0054
      8 C         141.3683  140.1874  167.4275 C.3     1  UNL1        0.0349
      9 C         140.7520  140.2507  166.0614 C.3     1  UNL1        0.0762
     10 C         142.4546  140.5054  166.4432 C.ar    1  UNL1       -0.0206
     11 C         143.0980  139.4037  165.6544 C.ar    1  UNL1       -0.0033
     12 C         144.1843  139.7218  164.6701 C.ar    1  UNL1        0.0119
     13 C         144.6271  141.1415  164.4746 C.ar    1  UNL1        0.0682
     14 CL        145.7133  141.4595  163.4903 Cl      1  UNL1       -0.0814
     15 C         143.9836  142.2432  165.2634 C.ar    1  UNL1        0.0679
     16 CL        144.4265  143.6630  165.0679 Cl      1  UNL1       -0.0814
     17 C         142.8973  141.9251  166.2477 C.ar    1  UNL1        0.0080
@<TRIPOS>BOND
     1     1     2    1
     2     2     3    1
     3     4     3    1
     4     4     5    1
     5     5     6    1
     6     6     7    1
     7     7     8    1
     8     8    10    1
     9    10    11   ar
    10    11    12   ar
    11    12    13   ar
    12    13    14    1
    13    13    15   ar
    14    15    16    1
    15    15    17   ar
    16     8     9    1
    17     9     2    1
    18     8     4    1
    19    17    10   ar
@<TRIPOS>MOLECULE
*****
 17 19 0 0 0
SMALL
GASTEIGER

@<TRIPOS>ATOM
      1 C         143.9585  144.3527  163.4513 C.3     1  UNL1        0.0896
      2 N         143.8230  143.0062  164.0981 N.3     1  UNL1       -0.2712
      3 C         144.3711  141.7143  163.5683 C.3     1  UNL1        0.0725
      4 C         144.0024  140.6248  164.5311 C.3     1  UNL1        0.0210
      5 C         144.1133  139.1530  164.7986 C.3     1  UNL1        0.0018
      6 C         143.4059  138.8619  166.0889 C.3     1  UNL1        0.0004
      7 C         142.8578  140.1537  166.6188 C.3     1  UNL1        0.0054
      8 C         143.2264  141.2433  165.6560 C.3     1  UNL1        0.0349
      9 C         143.1155  142.7150  165.3885 C.3     1  UNL1        0.0762
     10 C         142.4505  141.8617  166.7809 C.ar    1  UNL1       -0.0206
     11 C         141.0052  142.2149  166.5899 C.ar    1  UNL1       -0.0033
     12 C         140.2294  142.8334  167.7149 C.ar    1  UNL1        0.0119
     13 C         140.8987  143.0987  169.0307 C.ar    1  UNL1        0.0682
     14 CL        140.1228  143.7171  170.1556 Cl      1  UNL1       -0.0814
     15 C         142.3440  142.7455  169.2217 C.ar    1  UNL1        0.0679
     16 CL        143.0133  143.0108  170.5376 Cl      1  UNL1       -0.0814
     17 C         143.1199  142.1270  168.0967 C.ar    1  UNL1        0.0080
@<TRIPOS>BOND
     1     1     2    1
     2     2     3    1
     3     4     3    1
     4     4     5    1
     5     5     6    1
     6     6     7    1
     7     7     8    1
     8     8    10    1
     9    10    11   ar
    10    11    12   ar
    11    12    13   ar
    12    13    14    1
    13    13    15   ar
    14    15    16    1
    15    15    17   ar
    16     8     9    1
    17     9     2    1
    18     8     4    1
    19    17    10   ar
@<TRIPOS>MOLECULE
*****
 17 19 0 0 0
SMALL
GASTEIGER

@<TRIPOS>ATOM
      1 C         142.0131  138.5979  162.2621 C.3     1  UNL1        0.0896
      2 N         140.9654  138.5180  163.3325 N.3     1  UNL1       -0.2712
      3 C         140.3983  137.2593  163.9190 C.3     1  UNL1        0.0725
      4 C         139.3833  137.6461  164.9535 C.3     1  UNL1        0.0210
      5 C         138.4055  137.1073  165.9552 C.3     1  UNL1        0.0018
      6 C         137.7410  138.2721  166.6272 C.3     1  UNL1        0.0004
      7 C         138.3080  139.5309  166.0407 C.3     1  UNL1        0.0054
      8 C         139.3231  139.1440  165.0063 C.3     1  UNL1        0.0349
      9 C         140.3008  139.6829  164.0045 C.3     1  UNL1        0.0762
     10 C         139.2628  140.6419  165.0591 C.ar    1  UNL1       -0.0206
     11 C         140.0649  141.3891  166.0829 C.ar    1  UNL1       -0.0033
     12 C         140.0047  142.8870  166.1357 C.ar    1  UNL1        0.0119
     13 C         139.1423  143.6375  165.1646 C.ar    1  UNL1        0.0682
     14 CL        139.0821  145.1354  165.2174 Cl      1  UNL1       -0.0814
     15 C         138.3402  142.8903  164.1408 C.ar    1  UNL1        0.0679
     16 CL        137.4779  143.6409  163.1698 Cl      1  UNL1       -0.0814
     17 C         138.4005  141.3924  164.0880 C.ar    1  UNL1        0.0080
@<TRIPOS>BOND
     1     1     2    1
     2     2     3    1
     3     4     3    1
     4     4     5    1
     5     5     6    1
     6     6     7    1
     7     7     8    1
     8     8    10    1
     9    10    11   ar
    10    11    12   ar
    11    12    13   ar
    12    13    14    1
    13    13    15   ar
    14    15    16    1
    15    15    17   ar
    16     8     9    1
    17     9     2    1
    18     8     4    1
    19    17    10   ar
@<TRIPOS>MOLECULE
*****
 17 19 0 0 0
SMALL
GASTEIGER

@<TRIPOS>ATOM
      1 C         138.2510  144.2743  163.9228 C.3     1  UNL1        0.0896
      2 N         139.6108  143.8570  164.3987 N.3     1  UNL1       -0.2712
      3 C         140.9168  144.1952  163.7428 C.3     1  UNL1        0.0725
      4 C         142.0166  143.5754  164.5529 C.3     1  UNL1        0.0210
      5 C         143.5034  143.4014  164.6481 C.3     1  UNL1        0.0018
      6 C         143.7962  142.5726  165.8636 C.3     1  UNL1        0.0004
      7 C         142.4903  142.2344  166.5195 C.3     1  UNL1        0.0054
      8 C         141.3904  142.8541  165.7095 C.3     1  UNL1        0.0349
      9 C         139.9036  143.0281  165.6142 C.3     1  UNL1        0.0762
     10 C         140.7643  142.1329  166.8661 C.ar    1  UNL1       -0.0206
     11 C         140.2467  140.7363  166.6877 C.ar    1  UNL1       -0.0033
     12 C         139.6205  140.0151  167.8443 C.ar    1  UNL1        0.0119
     13 C         139.5120  140.6905  169.1792 C.ar    1  UNL1        0.0682
     14 CL        138.8858  139.9692  170.3358 Cl      1  UNL1       -0.0814
     15 C         140.0295  142.0870  169.3576 C.ar    1  UNL1        0.0679
     16 CL        139.9208  142.7623  170.6926 Cl      1  UNL1       -0.0814
     17 C         140.6557  142.8082  168.2010 C.ar    1  UNL1        0.0080
@<TRIPOS>BOND
     1     1     2    1
     2     2     3    1
     3     4     3    1
     4     4     5    1
     5     5     6    1
     6     6     7    1
     7     7     8    1
     8     8    10    1
     9    10    11   ar
    10    11    12   ar
    11    12    13   ar
    12    13    14    1
    13    13    15   ar
    14    15    16    1
    15    15    17   ar
    16     8     9    1
    17     9     2    1
    18     8     4    1
    19    17    10   ar
@<TRIPOS>MOLECULE
*****
 17 19 0 0 0
SMALL
GASTEIGER

@<TRIPOS>ATOM
      1 C         137.9375  143.3404  164.5858 C.3     1  UNL1        0.0896
      2 N         138.2990  141.8899  164.4628 N.3     1  UNL1       -0.2712
      3 C         137.9041  140.9747  163.3418 C.3     1  UNL1        0.0725
      4 C         138.4799  139.6190  163.6255 C.3     1  UNL1        0.0210
      5 C         138.5917  138.2155  163.1079 C.3     1  UNL1        0.0018
      6 C         139.4115  137.4254  164.0844 C.3     1  UNL1        0.0004
      7 C         139.8064  138.3405  165.2054 C.3     1  UNL1        0.0054
      8 C         139.2306  139.6962  164.9218 C.3     1  UNL1        0.0349
      9 C         139.1188  141.0996  165.4393 C.3     1  UNL1        0.0762
     10 C         139.9814  139.7734  166.2181 C.ar    1  UNL1       -0.0206
     11 C         141.4738  139.6233  166.2306 C.ar    1  UNL1       -0.0033
     12 C         142.2245  139.7006  167.5270 C.ar    1  UNL1        0.0119
     13 C         141.4827  139.9279  168.8107 C.ar    1  UNL1        0.0682
     14 CL        142.2335  140.0051  170.1071 Cl      1  UNL1       -0.0814
     15 C         139.9903  140.0780  168.7982 C.ar    1  UNL1        0.0679
     16 CL        139.2486  140.3053  170.0821 Cl      1  UNL1       -0.0814
     17 C         139.2396  140.0007  167.5019 C.ar    1  UNL1        0.0080
@<TRIPOS>BOND
     1     1     2    1
     2     2     3    1
     3     4     3    1
     4     4     5    1
     5     5     6    1
     6     6     7    1
     7     7     8    1
     8     8    10    1
     9    10    11   ar
    10    11    12   ar
    11    12    13   ar
    12    13    14    1
    13    13    15   ar
    14    15    16    1
    15    15    17   ar
    16     8     9    1
    17     9     2    1
    18     8     4    1
    19    17    10   ar
@<TRIPOS>MOLECULE
*****
 17 19 0 0 0
SMALL
GASTEIGER

@<TRIPOS>ATOM
      1 C         141.5849  142.9487  163.1389 C.3     1  UNL1        0.0896
      2 N         140.8448  142.0465  164.0813 N.3     1  UNL1       -0.2712
      3 C         139.7933  141.0464  163.7015 C.3     1  UNL1        0.0725
      4 C         139.3248  140.3678  164.9545 C.3     1  UNL1        0.0210
      5 C         138.3855  139.3303  165.4941 C.3     1  UNL1        0.0018
      6 C         138.5668  139.2698  166.9819 C.3     1  UNL1        0.0004
      7 C         139.6183  140.2699  167.3618 C.3     1  UNL1        0.0054
      8 C         140.0868  140.9485  166.1088 C.3     1  UNL1        0.0349
      9 C         141.0261  141.9860  165.5692 C.3     1  UNL1        0.0762
     10 C         140.8487  141.5292  167.2630 C.ar    1  UNL1       -0.0206
     11 C         142.2128  141.0049  167.6009 C.ar    1  UNL1       -0.0033
     12 C         142.9747  141.5857  168.7552 C.ar    1  UNL1        0.0119
     13 C         142.3724  142.6907  169.5714 C.ar    1  UNL1        0.0682
     14 CL        143.1343  143.2714  170.7257 Cl      1  UNL1       -0.0814
     15 C         141.0083  143.2149  169.2335 C.ar    1  UNL1        0.0679
     16 CL        140.4060  144.3199  170.0498 Cl      1  UNL1       -0.0814
     17 C         140.2464  142.6341  168.0792 C.ar    1  UNL1        0.0080
@<TRIPOS>BOND
     1     1     2    1
     2     2     3    1
     3     4     3    1
     4     4     5    1
     5     5     6    1
     6     6     7    1
     7     7     8    1
     8     8    10    1
     9    10    11   ar
    10    11    12   ar
    11    12    13   ar
    12    13    14    1
    13    13    15   ar
    14    15    16    1
    15    15    17   ar
    16     8     9    1
    17     9     2    1
    18     8     4    1
    19    17    10   ar
@<TRIPOS>MOLECULE
*****
 17 19 0 0 0
SMALL
GASTEIGER

@<TRIPOS>ATOM
      1 C         143.6266  142.6773  166.0482 C.3     1  UNL1        0.0896
      2 N         142.5261  142.0919  166.8823 N.3     1  UNL1       -0.2712
      3 C         142.2714  142.3779  168.3326 C.3     1  UNL1        0.0725
      4 C         141.0748  141.5803  168.7593 C.3     1  UNL1        0.0210
      5 C         140.1780  141.2641  169.9193 C.3     1  UNL1        0.0018
      6 C         139.1388  140.2898  169.4496 C.3     1  UNL1        0.0004
      7 C         139.3934  140.0037  167.9993 C.3     1  UNL1        0.0054
      8 C         140.5899  140.8013  167.5726 C.3     1  UNL1        0.0349
      9 C         141.4868  141.1174  166.4126 C.3     1  UNL1        0.0762
     10 C         140.1050  140.0223  166.3860 C.ar    1  UNL1       -0.0206
     11 C         138.8223  140.4064  165.7100 C.ar    1  UNL1       -0.0033
     12 C         138.3374  139.6273  164.5233 C.ar    1  UNL1        0.0119
     13 C         139.1354  138.4643  164.0128 C.ar    1  UNL1        0.0682
     14 CL        138.6505  137.6854  162.8262 Cl      1  UNL1       -0.0814
     15 C         140.4181  138.0803  164.6888 C.ar    1  UNL1        0.0679
     16 CL        141.2160  136.9173  164.1781 Cl      1  UNL1       -0.0814
     17 C         140.9030  138.8593  165.8754 C.ar    1  UNL1        0.0080
@<TRIPOS>BOND
     1     1     2    1
     2     2     3    1
     3     4     3    1
     4     4     5    1
     5     5     6    1
     6     6     7    1
     7     7     8    1
     8     8    10    1
     9    10    11   ar
    10    11    12   ar
    11    12    13   ar
    12    13    14    1
    13    13    15   ar
    14    15    16    1
    15    15    17   ar
    16     8     9    1
    17     9     2    1
    18     8     4    1
    19    17    10   ar
