@<TRIPOS>MOLECULE
*****
 25 27 0 0 0
SMALL
GASTEIGER

@<TRIPOS>ATOM
      1 C         142.4124  138.0577  162.9859 C.3     1  UNL1        0.0992
      2 C         141.4193  138.6591  160.6616 C.3     1  UNL1        0.0902
      3 N         141.2379  138.1377  162.0564 N.3     1  UNL1       -0.2639
      4 C         139.8819  137.6963  162.5216 C.3     1  UNL1        0.1025
      5 C         139.2666  138.3206  163.7388 C.ar    1  UNL1        0.0284
      6 C         138.9722  137.4797  164.9455 C.ar    1  UNL1        0.0001
      7 C         138.3569  138.1040  166.1627 C.ar    1  UNL1       -0.0001
      8 C         138.0359  139.5692  166.1732 C.ar    1  UNL1        0.0031
      9 C         138.3303  140.4101  164.9665 C.ar    1  UNL1        0.0374
     10 C         138.1255  141.8693  164.6858 C.ar    1  UNL1        0.0437
     11 C         138.6142  142.1468  163.2951 C.ar    1  UNL1        0.1796
     12 O         139.1211  140.8592  162.7162 O.2     1  UNL1       -0.4507
     13 C         138.9456  139.7858  163.7492 C.ar    1  UNL1        0.1427
     14 C         142.5822  139.0809  164.0696 C.2     1  UNL1       -0.0088
     15 C         142.4710  138.6741  165.5091 C.2     1  UNL1       -0.0032
     16 C         142.6408  139.6972  166.5928 C.ar    1  UNL1       -0.0003
     17 C         142.5836  139.2810  168.0328 C.ar    1  UNL1       -0.0001
     18 C         142.7534  140.3042  169.1165 C.ar    1  UNL1        0.0039
     19 C         142.9802  141.7434  168.7603 C.ar    1  UNL1        0.0714
     20 C         143.0374  142.1596  167.3203 C.ar    1  UNL1        0.0039
     21 C         142.8676  141.1366  166.2366 C.ar    1  UNL1       -0.0001
     22 C         143.1500  142.7666  169.8440 C.3     1  UNL1        0.4186
     23 F         143.3198  143.7897  170.9277 F       1  UNL1       -0.1659
     24 F         144.6244  142.4920  169.8722 F       1  UNL1       -0.1659
     25 F         141.6756  143.0412  169.8158 F       1  UNL1       -0.1659
@<TRIPOS>BOND
     1     2     3    1
     2     3     1    1
     3     1    14    1
     4    14    15    2
     5    15    16    1
     6    16    17   ar
     7    17    18   ar
     8    18    19   ar
     9    19    22    1
    10    22    23    1
    11    22    24    1
    12    22    25    1
    13    19    20   ar
    14    20    21   ar
    15     3     4    1
    16     4     5    1
    17     5     6   ar
    18     6     7   ar
    19     7     8   ar
    20     8     9   ar
    21     9    10   ar
    22    10    11   ar
    23    11    12   ar
    24    12    13   ar
    25    21    16   ar
    26    13     5   ar
    27    13     9   ar
@<TRIPOS>MOLECULE
*****
 25 27 0 0 0
SMALL
GASTEIGER

@<TRIPOS>ATOM
      1 C         144.3710  139.4863  163.8491 C.3     1  UNL1        0.0992
      2 C         144.1578  139.9649  161.3043 C.3     1  UNL1        0.0902
      3 N         143.7322  139.2000  162.5224 N.3     1  UNL1       -0.2639
      4 C         142.6677  138.1488  162.4139 C.3     1  UNL1        0.1025
      5 C         141.3882  138.2948  163.1829 C.ar    1  UNL1        0.0284
      6 C         140.9506  137.2114  164.1235 C.ar    1  UNL1        0.0001
      7 C         139.6711  137.3574  164.8925 C.ar    1  UNL1       -0.0001
      8 C         138.8291  138.5869  164.7210 C.ar    1  UNL1        0.0031
      9 C         139.2666  139.6703  163.7805 C.ar    1  UNL1        0.0374
     10 C         138.6491  140.9854  163.4075 C.ar    1  UNL1        0.0437
     11 C         139.5470  141.6522  162.4079 C.ar    1  UNL1        0.1796
     12 O         140.7194  140.7491  162.1631 O.2     1  UNL1       -0.4507
     13 C         140.5462  139.5243  163.0114 C.ar    1  UNL1        0.1427
     14 C         143.6336  140.2904  164.8785 C.2     1  UNL1       -0.0088
     15 C         142.9208  139.5976  166.0019 C.2     1  UNL1       -0.0032
     16 C         142.1835  140.4017  167.0314 C.ar    1  UNL1       -0.0003
     17 C         140.8278  139.9605  167.4977 C.ar    1  UNL1       -0.0001
     18 C         140.0905  140.7647  168.5272 C.ar    1  UNL1        0.0039
     19 C         140.7088  142.0098  169.0903 C.ar    1  UNL1        0.0714
     20 C         142.0644  142.4510  168.6239 C.ar    1  UNL1        0.0039
     21 C         142.8018  141.6470  167.5944 C.ar    1  UNL1       -0.0001
     22 C         139.9714  142.8140  170.1198 C.3     1  UNL1        0.4186
     23 F         139.2342  143.6181  171.1492 F       1  UNL1       -0.1659
     24 F         140.9723  143.9213  169.9715 F       1  UNL1       -0.1659
     25 F         138.9706  141.7066  170.2680 F       1  UNL1       -0.1659
@<TRIPOS>BOND
     1     2     3    1
     2     3     1    1
     3     1    14    1
     4    14    15    2
     5    15    16    1
     6    16    17   ar
     7    17    18   ar
     8    18    19   ar
     9    19    22    1
    10    22    23    1
    11    22    24    1
    12    22    25    1
    13    19    20   ar
    14    20    21   ar
    15     3     4    1
    16     4     5    1
    17     5     6   ar
    18     6     7   ar
    19     7     8   ar
    20     8     9   ar
    21     9    10   ar
    22    10    11   ar
    23    11    12   ar
    24    12    13   ar
    25    21    16   ar
    26    13     5   ar
    27    13     9   ar
@<TRIPOS>MOLECULE
*****
 25 27 0 0 0
SMALL
GASTEIGER

@<TRIPOS>ATOM
      1 C         138.1854  139.6776  162.6049 C.3     1  UNL1        0.0992
      2 C         139.6633  140.2327  160.5414 C.3     1  UNL1        0.0902
      3 N         138.6446  140.6509  161.5600 N.3     1  UNL1       -0.2639
      4 C         138.0852  142.0424  161.5337 C.3     1  UNL1        0.1025
      5 C         138.4533  143.0192  162.6109 C.ar    1  UNL1        0.0284
      6 C         137.4755  143.3340  163.7039 C.ar    1  UNL1        0.0001
      7 C         137.8435  144.3107  164.7811 C.ar    1  UNL1       -0.0001
      8 C         139.1894  144.9729  164.7653 C.ar    1  UNL1        0.0031
      9 C         140.1672  144.6581  163.6722 C.ar    1  UNL1        0.0374
     10 C         141.5569  145.1507  163.3963 C.ar    1  UNL1        0.0437
     11 C         142.0477  144.4783  162.1485 C.ar    1  UNL1        0.1796
     12 O         140.9614  143.5701  161.6533 O.2     1  UNL1       -0.4507
     13 C         139.7992  143.6813  162.5950 C.ar    1  UNL1        0.1427
     14 C         138.3491  140.0060  164.0594 C.2     1  UNL1       -0.0088
     15 C         139.6810  140.4577  164.5809 C.2     1  UNL1       -0.0032
     16 C         139.8448  140.7862  166.0353 C.ar    1  UNL1       -0.0003
     17 C         140.4707  142.0864  166.4447 C.ar    1  UNL1       -0.0001
     18 C         140.6344  142.4148  167.8991 C.ar    1  UNL1        0.0039
     19 C         140.1724  141.4431  168.9441 C.ar    1  UNL1        0.0714
     20 C         139.5465  140.1428  168.5347 C.ar    1  UNL1        0.0039
     21 C         139.3827  139.8144  167.0803 C.ar    1  UNL1       -0.0001
     22 C         140.3361  141.7715  170.3986 C.3     1  UNL1        0.4186
     23 F         140.4999  142.0999  171.8530 F       1  UNL1       -0.1659
     24 F         139.8757  143.1743  170.1336 F       1  UNL1       -0.1659
     25 F         140.7965  140.3687  170.6635 F       1  UNL1       -0.1659
@<TRIPOS>BOND
     1     2     3    1
     2     3     1    1
     3     1    14    1
     4    14    15    2
     5    15    16    1
     6    16    17   ar
     7    17    18   ar
     8    18    19   ar
     9    19    22    1
    10    22    23    1
    11    22    24    1
    12    22    25    1
    13    19    20   ar
    14    20    21   ar
    15     3     4    1
    16     4     5    1
    17     5     6   ar
    18     6     7   ar
    19     7     8   ar
    20     8     9   ar
    21     9    10   ar
    22    10    11   ar
    23    11    12   ar
    24    12    13   ar
    25    21    16   ar
    26    13     5   ar
    27    13     9   ar
@<TRIPOS>MOLECULE
*****
 25 27 0 0 0
SMALL
GASTEIGER

@<TRIPOS>ATOM
      1 C         138.3803  139.1379  164.2119 C.3     1  UNL1        0.0992
      2 C         138.6763  139.1582  161.6308 C.3     1  UNL1        0.0902
      3 N         138.2166  139.8295  162.8910 N.3     1  UNL1       -0.2639
      4 C         137.5930  141.1924  162.8301 C.3     1  UNL1        0.1025
      5 C         138.3125  142.3730  163.4120 C.ar    1  UNL1        0.0284
      6 C         137.6230  143.2533  164.4118 C.ar    1  UNL1        0.0001
      7 C         138.3424  144.4339  164.9936 C.ar    1  UNL1       -0.0001
      8 C         139.7514  144.7342  164.5756 C.ar    1  UNL1        0.0031
      9 C         140.4409  143.8539  163.5758 C.ar    1  UNL1        0.0374
     10 C         141.8154  143.9003  162.9770 C.ar    1  UNL1        0.0437
     11 C         141.9454  142.7483  162.0252 C.ar    1  UNL1        0.1796
     12 O         140.6513  141.9899  162.0356 O.2     1  UNL1       -0.4507
     13 C         139.7214  142.6733  162.9939 C.ar    1  UNL1        0.1427
     14 C         138.9771  139.8739  165.3748 C.2     1  UNL1       -0.0088
     15 C         140.4602  140.0865  165.4465 C.2     1  UNL1       -0.0032
     16 C         141.0571  140.8224  166.6093 C.ar    1  UNL1       -0.0003
     17 C         140.4205  142.0879  167.1026 C.ar    1  UNL1       -0.0001
     18 C         141.0174  142.8238  168.2655 C.ar    1  UNL1        0.0039
     19 C         142.2507  142.2943  168.9350 C.ar    1  UNL1        0.0714
     20 C         142.8873  141.0288  168.4417 C.ar    1  UNL1        0.0039
     21 C         142.2905  140.2929  167.2789 C.ar    1  UNL1       -0.0001
     22 C         142.8476  143.0302  170.0979 C.3     1  UNL1        0.4186
     23 F         143.4444  143.7661  171.2607 F       1  UNL1       -0.1659
     24 F         141.6401  143.9182  170.1557 F       1  UNL1       -0.1659
     25 F         144.0552  142.1422  170.0401 F       1  UNL1       -0.1659
@<TRIPOS>BOND
     1     2     3    1
     2     3     1    1
     3     1    14    1
     4    14    15    2
     5    15    16    1
     6    16    17   ar
     7    17    18   ar
     8    18    19   ar
     9    19    22    1
    10    22    23    1
    11    22    24    1
    12    22    25    1
    13    19    20   ar
    14    20    21   ar
    15     3     4    1
    16     4     5    1
    17     5     6   ar
    18     6     7   ar
    19     7     8   ar
    20     8     9   ar
    21     9    10   ar
    22    10    11   ar
    23    11    12   ar
    24    12    13   ar
    25    21    16   ar
    26    13     5   ar
    27    13     9   ar
@<TRIPOS>MOLECULE
*****
 25 27 0 0 0
SMALL
GASTEIGER

@<TRIPOS>ATOM
      1 C         138.5766  138.8864  162.8418 C.3     1  UNL1        0.0992
      2 C         139.7217  138.4108  160.5587 C.3     1  UNL1        0.0902
      3 N         139.6629  138.2255  162.0461 N.3     1  UNL1       -0.2639
      4 C         140.6903  137.3793  162.7376 C.3     1  UNL1        0.1025
      5 C         141.7762  138.0275  163.5443 C.ar    1  UNL1        0.0284
      6 C         141.8723  137.7676  165.0184 C.ar    1  UNL1        0.0001
      7 C         142.9581  138.4158  165.8251 C.ar    1  UNL1       -0.0001
      8 C         143.9480  139.3239  165.1575 C.ar    1  UNL1        0.0031
      9 C         143.8520  139.5837  163.6833 C.ar    1  UNL1        0.0374
     10 C         144.6784  140.4253  162.7566 C.ar    1  UNL1        0.0437
     11 C         144.1032  140.2972  161.3772 C.ar    1  UNL1        0.1796
     12 O         142.9213  139.3765  161.4514 O.2     1  UNL1       -0.4507
     13 C         142.7661  138.9355  162.8767 C.ar    1  UNL1        0.1427
     14 C         138.8037  139.2229  164.2859 C.2     1  UNL1       -0.0088
     15 C         139.4688  140.5145  164.6593 C.2     1  UNL1       -0.0032
     16 C         139.6959  140.8512  166.1033 C.ar    1  UNL1       -0.0003
     17 C         139.3297  139.8627  167.1704 C.ar    1  UNL1       -0.0001
     18 C         139.5569  140.1993  168.6144 C.ar    1  UNL1        0.0039
     19 C         140.1502  141.5244  168.9912 C.ar    1  UNL1        0.0714
     20 C         140.5164  142.5129  167.9241 C.ar    1  UNL1        0.0039
     21 C         140.2893  142.1763  166.4801 C.ar    1  UNL1       -0.0001
     22 C         140.3773  141.8611  170.4352 C.3     1  UNL1        0.4186
     23 F         140.6045  142.1977  171.8792 F       1  UNL1       -0.1659
     24 F         140.9189  140.4823  170.6715 F       1  UNL1       -0.1659
     25 F         139.8358  143.2398  170.1990 F       1  UNL1       -0.1659
@<TRIPOS>BOND
     1     2     3    1
     2     3     1    1
     3     1    14    1
     4    14    15    2
     5    15    16    1
     6    16    17   ar
     7    17    18   ar
     8    18    19   ar
     9    19    22    1
    10    22    23    1
    11    22    24    1
    12    22    25    1
    13    19    20   ar
    14    20    21   ar
    15     3     4    1
    16     4     5    1
    17     5     6   ar
    18     6     7   ar
    19     7     8   ar
    20     8     9   ar
    21     9    10   ar
    22    10    11   ar
    23    11    12   ar
    24    12    13   ar
    25    21    16   ar
    26    13     5   ar
    27    13     9   ar
@<TRIPOS>MOLECULE
*****
 25 27 0 0 0
SMALL
GASTEIGER

@<TRIPOS>ATOM
      1 C         141.2193  137.4095  163.5592 C.3     1  UNL1        0.0992
      2 C         140.6611  138.3109  161.1872 C.3     1  UNL1        0.0902
      3 N         141.6726  137.9155  162.2219 N.3     1  UNL1       -0.2639
      4 C         143.1376  138.0261  161.9192 C.3     1  UNL1        0.1025
      5 C         143.9027  139.2423  162.3497 C.ar    1  UNL1        0.0284
      6 C         144.5232  139.2939  163.7143 C.ar    1  UNL1        0.0001
      7 C         145.2883  140.5101  164.1448 C.ar    1  UNL1       -0.0001
      8 C         145.4328  141.6749  163.2107 C.ar    1  UNL1        0.0031
      9 C         144.8123  141.6233  161.8461 C.ar    1  UNL1        0.0374
     10 C         144.7874  142.6104  160.7169 C.ar    1  UNL1        0.0437
     11 C         144.0069  142.0041  159.5885 C.ar    1  UNL1        0.1796
     12 O         143.5494  140.6424  160.0203 O.2     1  UNL1       -0.4507
     13 C         144.0472  140.4070  161.4156 C.ar    1  UNL1        0.1427
     14 C         140.7838  138.3776  164.6191 C.2     1  UNL1       -0.0088
     15 C         141.7482  138.8065  165.6849 C.2     1  UNL1       -0.0032
     16 C         141.3128  139.7746  166.7447 C.ar    1  UNL1       -0.0003
     17 C         140.0209  139.5563  167.4749 C.ar    1  UNL1       -0.0001
     18 C         139.5855  140.5245  168.5348 C.ar    1  UNL1        0.0039
     19 C         140.4421  141.7108  168.8644 C.ar    1  UNL1        0.0714
     20 C         141.7341  141.9291  168.1342 C.ar    1  UNL1        0.0039
     21 C         142.1694  140.9610  167.0744 C.ar    1  UNL1       -0.0001
     22 C         140.0068  142.6790  169.9243 C.3     1  UNL1        0.4186
     23 F         139.5714  143.6470  170.9841 F       1  UNL1       -0.1659
     24 F         138.8666  141.7729  170.2835 F       1  UNL1       -0.1659
     25 F         141.1470  143.5850  169.5650 F       1  UNL1       -0.1659
@<TRIPOS>BOND
     1     2     3    1
     2     3     1    1
     3     1    14    1
     4    14    15    2
     5    15    16    1
     6    16    17   ar
     7    17    18   ar
     8    18    19   ar
     9    19    22    1
    10    22    23    1
    11    22    24    1
    12    22    25    1
    13    19    20   ar
    14    20    21   ar
    15     3     4    1
    16     4     5    1
    17     5     6   ar
    18     6     7   ar
    19     7     8   ar
    20     8     9   ar
    21     9    10   ar
    22    10    11   ar
    23    11    12   ar
    24    12    13   ar
    25    21    16   ar
    26    13     5   ar
    27    13     9   ar
@<TRIPOS>MOLECULE
*****
 25 27 0 0 0
SMALL
GASTEIGER

@<TRIPOS>ATOM
      1 C         139.9964  142.8750  161.3681 C.3     1  UNL1        0.0992
      2 C         140.3908  145.3624  160.7295 C.3     1  UNL1        0.0902
      3 N         140.9348  144.0053  161.0653 N.3     1  UNL1       -0.2639
      4 C         142.4172  143.7788  161.0982 C.3     1  UNL1        0.1025
      5 C         143.1270  143.6486  162.4132 C.ar    1  UNL1        0.0284
      6 C         143.1958  144.8200  163.3475 C.ar    1  UNL1        0.0001
      7 C         143.9056  144.6898  164.6625 C.ar    1  UNL1       -0.0001
      8 C         144.5467  143.3882  165.0432 C.ar    1  UNL1        0.0031
      9 C         144.4779  142.2168  164.1088 C.ar    1  UNL1        0.0374
     10 C         145.0115  140.8187  164.2111 C.ar    1  UNL1        0.0437
     11 C         144.6315  140.0848  162.9594 C.ar    1  UNL1        0.1796
     12 O         143.8630  141.0293  162.0834 O.2     1  UNL1       -0.4507
     13 C         143.7681  142.3470  162.7938 C.ar    1  UNL1        0.1427
     14 C         140.0679  142.1754  162.6931 C.2     1  UNL1       -0.0088
     15 C         139.9312  142.9604  163.9639 C.2     1  UNL1       -0.0032
     16 C         140.0026  142.2609  165.2889 C.ar    1  UNL1       -0.0003
     17 C         139.2552  140.9778  165.5009 C.ar    1  UNL1       -0.0001
     18 C         139.3267  140.2783  166.8259 C.ar    1  UNL1        0.0039
     19 C         140.1456  140.8619  167.9389 C.ar    1  UNL1        0.0714
     20 C         140.8930  142.1450  167.7269 C.ar    1  UNL1        0.0039
     21 C         140.8216  142.8445  166.4019 C.ar    1  UNL1       -0.0001
     22 C         140.2171  140.1625  169.2639 C.3     1  UNL1        0.4186
     23 F         140.2887  139.4630  170.5889 F       1  UNL1       -0.1659
     24 F         141.5017  139.5083  168.8492 F       1  UNL1       -0.1659
     25 F         138.9326  140.8166  169.6786 F       1  UNL1       -0.1659
@<TRIPOS>BOND
     1     2     3    1
     2     3     1    1
     3     1    14    1
     4    14    15    2
     5    15    16    1
     6    16    17   ar
     7    17    18   ar
     8    18    19   ar
     9    19    22    1
    10    22    23    1
    11    22    24    1
    12    22    25    1
    13    19    20   ar
    14    20    21   ar
    15     3     4    1
    16     4     5    1
    17     5     6   ar
    18     6     7   ar
    19     7     8   ar
    20     8     9   ar
    21     9    10   ar
    22    10    11   ar
    23    11    12   ar
    24    12    13   ar
    25    21    16   ar
    26    13     5   ar
    27    13     9   ar
@<TRIPOS>MOLECULE
*****
 25 27 0 0 0
SMALL
GASTEIGER

@<TRIPOS>ATOM
      1 C         143.1359  138.8811  163.1937 C.3     1  UNL1        0.0992
      2 C         143.6052  139.2646  160.6672 C.3     1  UNL1        0.0902
      3 N         143.8558  139.6179  162.1033 N.3     1  UNL1       -0.2639
      4 C         144.8264  140.7080  162.4490 C.3     1  UNL1        0.1025
      5 C         144.3334  141.9835  163.0654 C.ar    1  UNL1        0.0284
      6 C         144.8863  142.4430  164.3819 C.ar    1  UNL1        0.0001
      7 C         144.3932  143.7185  164.9983 C.ar    1  UNL1       -0.0001
      8 C         143.3473  144.5346  164.2983 C.ar    1  UNL1        0.0031
      9 C         142.7944  144.0751  162.9818 C.ar    1  UNL1        0.0374
     10 C         141.7641  144.6650  162.0650 C.ar    1  UNL1        0.0437
     11 C         141.6204  143.7541  160.8820 C.ar    1  UNL1        0.1796
     12 O         142.5619  142.6012  161.0676 O.2     1  UNL1       -0.4507
     13 C         143.2874  142.7996  162.3654 C.ar    1  UNL1        0.1427
     14 C         142.4144  139.6444  164.2647 C.2     1  UNL1       -0.0088
     15 C         142.9876  139.7177  165.6489 C.2     1  UNL1       -0.0032
     16 C         142.2662  140.4809  166.7199 C.ar    1  UNL1       -0.0003
     17 C         142.3342  140.0188  168.1453 C.ar    1  UNL1       -0.0001
     18 C         141.6127  140.7821  169.2163 C.ar    1  UNL1        0.0039
     19 C         140.8233  142.0073  168.8619 C.ar    1  UNL1        0.0714
     20 C         140.7554  142.4694  167.4365 C.ar    1  UNL1        0.0039
     21 C         141.4768  141.7062  166.3655 C.ar    1  UNL1       -0.0001
     22 C         140.1018  142.7705  169.9330 C.3     1  UNL1        0.4186
     23 F         139.3804  143.5338  171.0039 F       1  UNL1       -0.1659
     24 F         141.0938  143.8883  169.8046 F       1  UNL1       -0.1659
     25 F         139.1098  141.6528  170.0614 F       1  UNL1       -0.1659
@<TRIPOS>BOND
     1     2     3    1
     2     3     1    1
     3     1    14    1
     4    14    15    2
     5    15    16    1
     6    16    17   ar
     7    17    18   ar
     8    18    19   ar
     9    19    22    1
    10    22    23    1
    11    22    24    1
    12    22    25    1
    13    19    20   ar
    14    20    21   ar
    15     3     4    1
    16     4     5    1
    17     5     6   ar
    18     6     7   ar
    19     7     8   ar
    20     8     9   ar
    21     9    10   ar
    22    10    11   ar
    23    11    12   ar
    24    12    13   ar
    25    21    16   ar
    26    13     5   ar
    27    13     9   ar
@<TRIPOS>MOLECULE
*****
 25 27 0 0 0
SMALL
GASTEIGER

@<TRIPOS>ATOM
      1 C         140.1563  143.9200  163.7726 C.3     1  UNL1        0.0992
      2 C         137.6717  143.9591  163.0139 C.3     1  UNL1        0.0902
      3 N         138.9970  143.2603  163.0864 N.3     1  UNL1       -0.2639
      4 C         139.1631  141.9017  162.4726 C.3     1  UNL1        0.1025
      5 C         139.1052  140.6765  163.3360 C.ar    1  UNL1        0.0284
      6 C         138.1697  140.6280  164.5075 C.ar    1  UNL1        0.0001
      7 C         138.1119  139.4028  165.3709 C.ar    1  UNL1       -0.0001
      8 C         138.9896  138.2260  165.0628 C.ar    1  UNL1        0.0031
      9 C         139.9251  138.2745  163.8914 C.ar    1  UNL1        0.0374
     10 C         140.9029  137.2764  163.3458 C.ar    1  UNL1        0.0437
     11 C         141.5650  137.8847  162.1452 C.ar    1  UNL1        0.1796
     12 O         140.9965  139.2589  161.9487 O.2     1  UNL1       -0.4507
     13 C         139.9830  139.4998  163.0280 C.ar    1  UNL1        0.1427
     14 C         140.8968  143.1955  164.8575 C.2     1  UNL1       -0.0088
     15 C         140.1709  142.7496  166.0921 C.2     1  UNL1       -0.0032
     16 C         140.9114  142.0251  167.1769 C.ar    1  UNL1       -0.0003
     17 C         142.3121  142.4304  167.5285 C.ar    1  UNL1       -0.0001
     18 C         143.0525  141.7058  168.6134 C.ar    1  UNL1        0.0039
     19 C         142.3922  140.5761  169.3466 C.ar    1  UNL1        0.0714
     20 C         140.9914  140.1709  168.9950 C.ar    1  UNL1        0.0039
     21 C         140.2510  140.8954  167.9102 C.ar    1  UNL1       -0.0001
     22 C         143.1326  139.8516  170.4315 C.3     1  UNL1        0.4186
     23 F         143.8730  139.1271  171.5164 F       1  UNL1       -0.1659
     24 F         144.0289  141.0404  170.6137 F       1  UNL1       -0.1659
     25 F         142.2362  138.6627  170.2494 F       1  UNL1       -0.1659
@<TRIPOS>BOND
     1     2     3    1
     2     3     1    1
     3     1    14    1
     4    14    15    2
     5    15    16    1
     6    16    17   ar
     7    17    18   ar
     8    18    19   ar
     9    19    22    1
    10    22    23    1
    11    22    24    1
    12    22    25    1
    13    19    20   ar
    14    20    21   ar
    15     3     4    1
    16     4     5    1
    17     5     6   ar
    18     6     7   ar
    19     7     8   ar
    20     8     9   ar
    21     9    10   ar
    22    10    11   ar
    23    11    12   ar
    24    12    13   ar
    25    21    16   ar
    26    13     5   ar
    27    13     9   ar
