@<TRIPOS>MOLECULE
*****
 39 44 0 0 0
SMALL
GASTEIGER

@<TRIPOS>ATOM
      1 C         140.8016  140.7702  161.1881 C.ar    1  UNL1        0.2219
      2 N         141.4875  142.0178  160.7157 N.ar    1  UNL1       -0.2096
      3 C         142.4343  142.7435  161.6251 C.ar    1  UNL1        0.1329
      4 C         142.6952  142.2216  163.0070 C.ar    1  UNL1        0.1768
      5 F         143.6419  142.9472  163.9164 F       1  UNL1       -0.2009
      6 C         142.0092  140.9739  163.4794 C.ar    1  UNL1        0.1132
      7 N         141.0625  140.2483  162.5700 N.ar    1  UNL1       -0.2112
      8 C         142.2702  140.4520  164.8613 C.ar    1  UNL1        0.0238
      9 C         143.0353  139.1756  165.0489 C.ar    1  UNL1        0.0329
     10 C         143.2963  138.6537  166.4308 C.ar    1  UNL1        0.1591
     11 F         144.0614  137.3774  166.6184 F       1  UNL1       -0.2025
     12 C         142.7920  139.4084  167.6250 C.ar    1  UNL1        0.1256
     13 N         142.8949  139.1418  169.0976 N.ar    1  UNL1       -0.2287
     14 C         142.1933  140.2535  169.8200 C.ar    1  UNL1        0.1203
     15 N         141.6568  141.2072  168.7940 N.ar    1  UNL1       -0.3184
     16 C         142.0269  140.6849  167.4375 C.ar    1  UNL1        0.0808
     17 C         141.7659  141.2067  166.0556 C.ar    1  UNL1        0.0205
     18 C         140.9552  142.3189  169.5164 C.3     1  UNL1        0.0700
     19 C         140.6943  142.8407  168.1346 C.3     1  UNL1        0.0227
     20 C         140.1991  143.5396  169.9500 C.3     1  UNL1        0.0227
     21 C         141.0581  142.0522  170.9890 C.3     1  UNL1        0.0287
     22 C         141.8232  140.7758  171.1766 C.3     1  UNL1        0.0658
     23 N         139.8548  140.0446  160.2787 N.pl3   1  UNL1       -0.2680
     24 H         138.8828  140.1444  160.3989 H       1  UNL1        0.1565
     25 C         141.4578  137.4112  157.0005 C.ar    1  UNL1        0.0131
     26 C         142.3947  138.0096  158.0075 C.ar    1  UNL1        0.0015
     27 C         141.8603  138.8874  159.1002 C.ar    1  UNL1        0.0342
     28 C         140.3891  139.1668  159.1860 C.ar    1  UNL1        0.1343
     29 N         139.4521  138.5684  158.1789 N.ar    1  UNL1       -0.2293
     30 C         139.9865  137.6906  157.0862 C.ar    1  UNL1        0.0974
     31 C         141.9921  136.5335  155.9078 C.3     1  UNL1        0.1008
     32 N         142.9012  132.2056  156.7400 N.3     1  UNL1       -0.2703
     33 C         141.8601  132.5713  155.7240 C.3     1  UNL1        0.0897
     34 C         141.5571  134.0139  155.4466 C.3     1  UNL1        0.0899
     35 N         142.2951  135.0908  156.1852 N.3     1  UNL1       -0.2665
     36 C         143.3361  134.7251  157.2013 C.3     1  UNL1        0.0899
     37 C         143.6392  133.2825  157.4787 C.3     1  UNL1        0.0897
     38 C         144.4759  130.3848  157.7172 C.3     1  UNL1        0.0188
     39 C         143.2042  130.7630  157.0174 C.3     1  UNL1        0.0722
@<TRIPOS>BOND
     1    38    39    1
     2    39    32    1
     3    32    33    1
     4    33    34    1
     5    34    35    1
     6    35    31    1
     7    31    25    1
     8    25    26   ar
     9    26    27   ar
    10    27    28   ar
    11    28    23    1
    12    23     1    1
    13     1     2   ar
    14     2     3   ar
    15     3     4   ar
    16     4     5    1
    17     4     6   ar
    18     6     8    1
    19     8     9   ar
    20     9    10   ar
    21    10    11    1
    22    10    12   ar
    23    12    13   ar
    24    13    14   ar
    25    14    15   ar
    26    15    16   ar
    27    16    17   ar
    28    15    18    1
    29    18    19    1
    30    18    20    1
    31    18    21    1
    32    21    22    1
    33     6     7   ar
    34    28    29   ar
    35    29    30   ar
    36    35    36    1
    37    36    37    1
    38    37    32    1
    39    30    25   ar
    40     7     1   ar
    41    17     8   ar
    42    16    12   ar
    43    22    14    1
    44    23    24    1
@<TRIPOS>MOLECULE
*****
 39 44 0 0 0
SMALL
GASTEIGER

@<TRIPOS>ATOM
      1 C         140.9250  143.7848  161.0911 C.ar    1  UNL1        0.2219
      2 N         140.5635  145.2285  161.2781 N.ar    1  UNL1       -0.2096
      3 C         140.0097  145.6991  162.5903 C.ar    1  UNL1        0.1329
      4 C         139.8175  144.7260  163.7155 C.ar    1  UNL1        0.1768
      5 F         139.2637  145.1966  165.0277 F       1  UNL1       -0.2009
      6 C         140.1790  143.2822  163.5285 C.ar    1  UNL1        0.1132
      7 N         140.7328  142.8116  162.2162 N.ar    1  UNL1       -0.2112
      8 C         139.9867  142.3091  164.6537 C.ar    1  UNL1        0.0238
      9 C         138.8537  141.3271  164.6106 C.ar    1  UNL1        0.0329
     10 C         138.6614  140.3539  165.7359 C.ar    1  UNL1        0.1591
     11 F         137.5285  139.3719  165.6928 F       1  UNL1       -0.2025
     12 C         139.6022  140.3630  166.9041 C.ar    1  UNL1        0.1256
     13 N         139.6631  139.5301  168.1503 N.ar    1  UNL1       -0.2287
     14 C         140.8337  139.9975  168.9634 C.ar    1  UNL1        0.1203
     15 N         141.4963  141.1192  168.2199 N.ar    1  UNL1       -0.3184
     16 C         140.7352  141.3451  166.9473 C.ar    1  UNL1        0.0808
     17 C         140.9274  142.3181  165.8220 C.ar    1  UNL1        0.0205
     18 C         142.6669  141.5866  169.0331 C.3     1  UNL1        0.0700
     19 C         142.8591  142.5597  167.9078 C.3     1  UNL1        0.0227
     20 C         143.8777  142.2574  169.6110 C.3     1  UNL1        0.0227
     21 C         142.7278  140.7538  170.2791 C.3     1  UNL1        0.0287
     22 C         141.5948  139.7717  170.2361 C.3     1  UNL1        0.0658
     23 N         141.4788  143.3142  159.7788 N.pl3   1  UNL1       -0.2680
     24 H         142.0526  142.5149  159.7449 H       1  UNL1        0.1565
     25 C         140.5175  145.5562  155.9974 C.ar    1  UNL1        0.0131
     26 C         141.8271  145.7842  156.6922 C.ar    1  UNL1        0.0015
     27 C         142.1475  145.0369  157.9526 C.ar    1  UNL1        0.0342
     28 C         141.1583  144.0615  158.5184 C.ar    1  UNL1        0.1343
     29 N         139.8486  143.8334  157.8236 N.ar    1  UNL1       -0.2293
     30 C         139.5282  144.5808  156.5630 C.ar    1  UNL1        0.0974
     31 C         140.1970  146.3035  154.7369 C.3     1  UNL1        0.1008
     32 N         138.9096  150.6106  154.9400 N.3     1  UNL1       -0.2703
     33 C         139.7806  150.1405  153.8129 C.3     1  UNL1        0.0897
     34 C         140.2097  148.7048  153.7452 C.3     1  UNL1        0.0899
     35 N         139.7679  147.7392  154.8046 N.3     1  UNL1       -0.2665
     36 C         138.8969  148.2092  155.9317 C.3     1  UNL1        0.0899
     37 C         138.4678  149.6449  155.9995 C.3     1  UNL1        0.0897
     38 C         138.8127  152.9822  153.8837 C.3     1  UNL1        0.0188
     39 C         138.4805  152.0463  155.0077 C.3     1  UNL1        0.0722
@<TRIPOS>BOND
     1    38    39    1
     2    39    32    1
     3    32    33    1
     4    33    34    1
     5    34    35    1
     6    35    31    1
     7    31    25    1
     8    25    26   ar
     9    26    27   ar
    10    27    28   ar
    11    28    23    1
    12    23     1    1
    13     1     2   ar
    14     2     3   ar
    15     3     4   ar
    16     4     5    1
    17     4     6   ar
    18     6     8    1
    19     8     9   ar
    20     9    10   ar
    21    10    11    1
    22    10    12   ar
    23    12    13   ar
    24    13    14   ar
    25    14    15   ar
    26    15    16   ar
    27    16    17   ar
    28    15    18    1
    29    18    19    1
    30    18    20    1
    31    18    21    1
    32    21    22    1
    33     6     7   ar
    34    28    29   ar
    35    29    30   ar
    36    35    36    1
    37    36    37    1
    38    37    32    1
    39    30    25   ar
    40     7     1   ar
    41    17     8   ar
    42    16    12   ar
    43    22    14    1
    44    23    24    1
@<TRIPOS>MOLECULE
*****
 39 44 0 0 0
SMALL
GASTEIGER

@<TRIPOS>ATOM
      1 C         138.9581  140.6505  161.0120 C.ar    1  UNL1        0.2219
      2 N         139.4312  142.0295  160.6595 N.ar    1  UNL1       -0.2096
      3 C         139.8674  142.9723  161.7417 C.ar    1  UNL1        0.1329
      4 C         139.8305  142.5359  163.1763 C.ar    1  UNL1        0.1768
      5 F         140.2666  143.4786  164.2585 F       1  UNL1       -0.2009
      6 C         139.3573  141.1568  163.5288 C.ar    1  UNL1        0.1132
      7 N         138.9211  140.2141  162.4466 N.ar    1  UNL1       -0.2112
      8 C         139.3203  140.7204  164.9635 C.ar    1  UNL1        0.0238
      9 C         138.2103  139.8369  165.4503 C.ar    1  UNL1        0.0329
     10 C         138.1733  139.4005  166.8850 C.ar    1  UNL1        0.1591
     11 F         137.0633  138.5170  167.3719 F       1  UNL1       -0.2025
     12 C         139.2465  139.8478  167.8328 C.ar    1  UNL1        0.1256
     13 N         139.4725  139.5808  169.2915 N.ar    1  UNL1       -0.2287
     14 C         140.7222  140.2994  169.7061 C.ar    1  UNL1        0.1203
     15 N         141.2686  141.0105  168.5037 N.ar    1  UNL1       -0.3184
     16 C         140.3566  140.7314  167.3459 C.ar    1  UNL1        0.0808
     17 C         140.3935  141.1677  165.9113 C.ar    1  UNL1        0.0205
     18 C         142.5183  141.7291  168.9182 C.3     1  UNL1        0.0700
     19 C         142.5552  142.1654  167.4836 C.3     1  UNL1        0.0227
     20 C         143.7757  142.5388  169.0329 C.3     1  UNL1        0.0227
     21 C         142.7442  141.4620  170.3769 C.3     1  UNL1        0.0287
     22 C         141.6342  140.5785  170.8638 C.3     1  UNL1        0.0658
     23 N         138.5219  139.7078  159.9298 N.pl3   1  UNL1       -0.2680
     24 H         137.5630  139.5531  159.7687 H       1  UNL1        0.1565
     25 C         141.5963  137.5867  157.4200 C.ar    1  UNL1        0.0131
     26 C         141.9424  138.0365  158.8085 C.ar    1  UNL1        0.0015
     27 C         140.9175  138.7435  159.6451 C.ar    1  UNL1        0.0342
     28 C         139.5466  139.0008  159.0932 C.ar    1  UNL1        0.1343
     29 N         139.2006  138.5510  157.7047 N.ar    1  UNL1       -0.2293
     30 C         140.2255  137.8439  156.8681 C.ar    1  UNL1        0.0974
     31 C         142.6211  136.8797  156.5834 C.3     1  UNL1        0.1008
     32 N         142.5284  132.3950  156.2254 N.3     1  UNL1       -0.2703
     33 C         141.6631  133.2365  155.3348 C.3     1  UNL1        0.0897
     34 C         141.6940  134.7314  155.4542 C.3     1  UNL1        0.0899
     35 N         142.5902  135.3848  156.4641 N.3     1  UNL1       -0.2665
     36 C         143.4554  134.5433  157.3547 C.3     1  UNL1        0.0899
     37 C         143.4245  133.0484  157.2354 C.3     1  UNL1        0.0897
     38 C         143.5065  130.0680  156.8405 C.3     1  UNL1        0.0188
     39 C         142.4975  130.9001  156.1061 C.3     1  UNL1        0.0722
@<TRIPOS>BOND
     1    38    39    1
     2    39    32    1
     3    32    33    1
     4    33    34    1
     5    34    35    1
     6    35    31    1
     7    31    25    1
     8    25    26   ar
     9    26    27   ar
    10    27    28   ar
    11    28    23    1
    12    23     1    1
    13     1     2   ar
    14     2     3   ar
    15     3     4   ar
    16     4     5    1
    17     4     6   ar
    18     6     8    1
    19     8     9   ar
    20     9    10   ar
    21    10    11    1
    22    10    12   ar
    23    12    13   ar
    24    13    14   ar
    25    14    15   ar
    26    15    16   ar
    27    16    17   ar
    28    15    18    1
    29    18    19    1
    30    18    20    1
    31    18    21    1
    32    21    22    1
    33     6     7   ar
    34    28    29   ar
    35    29    30   ar
    36    35    36    1
    37    36    37    1
    38    37    32    1
    39    30    25   ar
    40     7     1   ar
    41    17     8   ar
    42    16    12   ar
    43    22    14    1
    44    23    24    1
@<TRIPOS>MOLECULE
*****
 39 44 0 0 0
SMALL
GASTEIGER

@<TRIPOS>ATOM
      1 C         139.7713  139.1763  158.7911 C.ar    1  UNL1        0.2219
      2 N         140.8568  140.2022  158.9302 N.ar    1  UNL1       -0.2096
      3 C         142.1422  140.0415  158.1739 C.ar    1  UNL1        0.1329
      4 C         142.3421  138.8549  157.2783 C.ar    1  UNL1        0.1768
      5 F         143.6274  138.6942  156.5219 F       1  UNL1       -0.2009
      6 C         141.2565  137.8290  157.1391 C.ar    1  UNL1        0.1132
      7 N         139.9712  137.9897  157.8955 N.ar    1  UNL1       -0.2112
      8 C         141.4565  136.6423  156.2435 C.ar    1  UNL1        0.0238
      9 C         140.7281  136.5593  154.9349 C.ar    1  UNL1        0.0329
     10 C         140.9281  135.3726  154.0393 C.ar    1  UNL1        0.1591
     11 F         140.1998  135.2895  152.7307 F       1  UNL1       -0.2025
     12 C         141.8564  134.2692  154.4524 C.ar    1  UNL1        0.1256
     13 N         142.2509  132.9860  153.7831 N.ar    1  UNL1       -0.2287
     14 C         143.2230  132.2762  154.6782 C.ar    1  UNL1        0.1203
     15 N         143.4294  133.1206  155.9006 N.ar    1  UNL1       -0.3184
     16 C         142.5848  134.3523  155.7611 C.ar    1  UNL1        0.0808
     17 C         142.3848  135.5389  156.6566 C.ar    1  UNL1        0.0205
     18 C         144.4015  132.4108  156.7957 C.3     1  UNL1        0.0700
     19 C         144.2016  133.5974  157.6912 C.3     1  UNL1        0.0227
     20 C         145.3319  131.9490  157.8779 C.3     1  UNL1        0.0227
     21 C         144.7960  131.1277  156.1263 C.3     1  UNL1        0.0287
     22 C         144.0676  131.0445  154.8177 C.3     1  UNL1        0.0658
     23 N         138.4860  139.3370  159.5474 N.pl3   1  UNL1       -0.2680
     24 H         137.6461  139.5026  159.0612 H       1  UNL1        0.1565
     25 C         138.4694  139.0621  164.0390 C.ar    1  UNL1        0.0131
     26 C         138.9774  137.9133  163.2192 C.ar    1  UNL1        0.0015
     27 C         138.9830  138.0050  161.7220 C.ar    1  UNL1        0.0342
     28 C         138.4804  139.2454  161.0446 C.ar    1  UNL1        0.1343
     29 N         137.9724  140.3942  161.8644 N.ar    1  UNL1       -0.2293
     30 C         137.9668  140.3025  163.3617 C.ar    1  UNL1        0.0974
     31 C         138.4638  138.9705  165.5362 C.3     1  UNL1        0.1008
     32 N         141.7609  140.8925  167.9204 N.3     1  UNL1       -0.2703
     33 C         141.9649  140.5920  166.4651 C.3     1  UNL1        0.0897
     34 C         140.8659  139.9513  165.6704 C.3     1  UNL1        0.0899
     35 N         139.5628  139.6112  166.3309 N.3     1  UNL1       -0.2665
     36 C         139.3588  139.9117  167.7863 C.3     1  UNL1        0.0899
     37 C         140.4578  140.5524  168.5810 C.3     1  UNL1        0.0897
     38 C         142.5581  142.7014  169.6064 C.3     1  UNL1        0.0188
     39 C         142.8599  141.5332  168.7152 C.3     1  UNL1        0.0722
@<TRIPOS>BOND
     1    38    39    1
     2    39    32    1
     3    32    33    1
     4    33    34    1
     5    34    35    1
     6    35    31    1
     7    31    25    1
     8    25    26   ar
     9    26    27   ar
    10    27    28   ar
    11    28    23    1
    12    23     1    1
    13     1     2   ar
    14     2     3   ar
    15     3     4   ar
    16     4     5    1
    17     4     6   ar
    18     6     8    1
    19     8     9   ar
    20     9    10   ar
    21    10    11    1
    22    10    12   ar
    23    12    13   ar
    24    13    14   ar
    25    14    15   ar
    26    15    16   ar
    27    16    17   ar
    28    15    18    1
    29    18    19    1
    30    18    20    1
    31    18    21    1
    32    21    22    1
    33     6     7   ar
    34    28    29   ar
    35    29    30   ar
    36    35    36    1
    37    36    37    1
    38    37    32    1
    39    30    25   ar
    40     7     1   ar
    41    17     8   ar
    42    16    12   ar
    43    22    14    1
    44    23    24    1
@<TRIPOS>MOLECULE
*****
 39 44 0 0 0
SMALL
GASTEIGER

@<TRIPOS>ATOM
      1 C         143.6798  142.2549  159.1977 C.ar    1  UNL1        0.2219
      2 N         142.8224  143.3246  158.5889 N.ar    1  UNL1       -0.2096
      3 C         142.0321  144.2451  159.4711 C.ar    1  UNL1        0.1329
      4 C         142.0991  144.0958  160.9621 C.ar    1  UNL1        0.1768
      5 F         141.3088  145.0162  161.8443 F       1  UNL1       -0.2009
      6 C         142.9565  143.0260  161.5710 C.ar    1  UNL1        0.1132
      7 N         143.7468  142.1056  160.6887 N.ar    1  UNL1       -0.2112
      8 C         143.0235  142.8768  163.0621 C.ar    1  UNL1        0.0238
      9 C         144.1286  143.5360  163.8328 C.ar    1  UNL1        0.0329
     10 C         144.1956  143.3867  165.3239 C.ar    1  UNL1        0.1591
     11 F         145.3007  144.0458  166.0948 F       1  UNL1       -0.2025
     12 C         143.1575  142.5782  166.0441 C.ar    1  UNL1        0.1256
     13 N         142.9657  142.2560  167.4965 N.ar    1  UNL1       -0.2287
     14 C         141.7421  141.3977  167.6233 C.ar    1  UNL1        0.1203
     15 N         141.1776  141.1894  166.2492 N.ar    1  UNL1       -0.3184
     16 C         142.0523  141.9190  165.2733 C.ar    1  UNL1        0.0808
     17 C         141.9854  142.0683  163.7822 C.ar    1  UNL1        0.0205
     18 C         139.9540  140.3311  166.3759 C.3     1  UNL1        0.0700
     19 C         139.8870  140.4804  164.8849 C.3     1  UNL1        0.0227
     20 C         138.7163  139.5040  166.1910 C.3     1  UNL1        0.0227
     21 C         139.7622  140.0090  167.8283 C.3     1  UNL1        0.0287
     22 C         140.8673  140.6681  168.5992 C.3     1  UNL1        0.0658
     23 N         144.4701  141.3345  158.3155 N.pl3   1  UNL1       -0.2680
     24 H         145.4332  141.4882  158.1809 H       1  UNL1        0.1565
     25 C         142.4385  137.8709  156.2841 C.ar    1  UNL1        0.0131
     26 C         141.8416  138.4685  157.5237 C.ar    1  UNL1        0.0015
     27 C         142.5188  139.6230  158.2008 C.ar    1  UNL1        0.0342
     28 C         143.7930  140.1800  157.6383 C.ar    1  UNL1        0.1343
     29 N         144.3899  139.5825  156.3987 N.ar    1  UNL1       -0.2293
     30 C         143.7127  138.4279  155.7216 C.ar    1  UNL1        0.0974
     31 C         141.7614  136.7164  155.6069 C.3     1  UNL1        0.1008
     32 N         142.8171  132.4970  156.7608 N.3     1  UNL1       -0.2703
     33 C         143.5043  133.6512  157.4282 C.3     1  UNL1        0.0897
     34 C         143.1524  135.0577  157.0435 C.3     1  UNL1        0.0899
     35 N         142.1133  135.3100  155.9915 N.3     1  UNL1       -0.2665
     36 C         141.4261  134.1557  155.3241 C.3     1  UNL1        0.0899
     37 C         141.7780  132.7492  155.7088 C.3     1  UNL1        0.0897
     38 C         144.4935  130.7969  157.7852 C.3     1  UNL1        0.0188
     39 C         143.1690  131.0905  157.1454 C.3     1  UNL1        0.0722
@<TRIPOS>BOND
     1    38    39    1
     2    39    32    1
     3    32    33    1
     4    33    34    1
     5    34    35    1
     6    35    31    1
     7    31    25    1
     8    25    26   ar
     9    26    27   ar
    10    27    28   ar
    11    28    23    1
    12    23     1    1
    13     1     2   ar
    14     2     3   ar
    15     3     4   ar
    16     4     5    1
    17     4     6   ar
    18     6     8    1
    19     8     9   ar
    20     9    10   ar
    21    10    11    1
    22    10    12   ar
    23    12    13   ar
    24    13    14   ar
    25    14    15   ar
    26    15    16   ar
    27    16    17   ar
    28    15    18    1
    29    18    19    1
    30    18    20    1
    31    18    21    1
    32    21    22    1
    33     6     7   ar
    34    28    29   ar
    35    29    30   ar
    36    35    36    1
    37    36    37    1
    38    37    32    1
    39    30    25   ar
    40     7     1   ar
    41    17     8   ar
    42    16    12   ar
    43    22    14    1
    44    23    24    1
@<TRIPOS>MOLECULE
*****
 39 44 0 0 0
SMALL
GASTEIGER

@<TRIPOS>ATOM
      1 C         141.8319  144.1078  161.3108 C.ar    1  UNL1        0.2219
      2 N         140.7935  145.1577  161.5740 N.ar    1  UNL1       -0.2096
      3 C         140.1270  145.2339  162.9156 C.ar    1  UNL1        0.1329
      4 C         140.4990  144.2600  163.9942 C.ar    1  UNL1        0.1768
      5 F         139.8325  144.3361  165.3358 F       1  UNL1       -0.2009
      6 C         141.5374  143.2100  163.7310 C.ar    1  UNL1        0.1132
      7 N         142.2039  143.1339  162.3894 N.ar    1  UNL1       -0.2112
      8 C         141.9094  142.2362  164.8097 C.ar    1  UNL1        0.0238
      9 C         142.7676  141.0495  164.4853 C.ar    1  UNL1        0.0329
     10 C         143.1396  140.0757  165.5639 C.ar    1  UNL1        0.1591
     11 F         143.9978  138.8891  165.2396 F       1  UNL1       -0.2025
     12 C         142.6533  140.2886  166.9668 C.ar    1  UNL1        0.1256
     13 N         142.8557  139.5041  168.2292 N.ar    1  UNL1       -0.2287
     14 C         142.1225  140.2060  169.3337 C.ar    1  UNL1        0.1203
     15 N         141.4670  141.4243  168.7540 N.ar    1  UNL1       -0.3184
     16 C         141.7950  141.4753  167.2912 C.ar    1  UNL1        0.0808
     17 C         141.4231  142.4491  166.2125 C.ar    1  UNL1        0.0205
     18 C         140.7339  142.1261  169.8584 C.3     1  UNL1        0.0700
     19 C         140.3619  143.0999  168.7798 C.3     1  UNL1        0.0227
     20 C         139.9230  143.0316  170.7374 C.3     1  UNL1        0.0227
     21 C         140.9363  141.3416  171.1208 C.3     1  UNL1        0.0287
     22 C         141.7945  140.1549  170.7965 C.3     1  UNL1        0.0658
     23 N         142.4983  144.0317  159.9691 N.pl3   1  UNL1       -0.2680
     24 H         143.3894  143.6217  159.8846 H       1  UNL1        0.1565
     25 C         140.4243  145.6773  156.3304 C.ar    1  UNL1        0.0131
     26 C         139.7807  144.5835  157.1301 C.ar    1  UNL1        0.0015
     27 C         140.4721  144.0350  158.3430 C.ar    1  UNL1        0.0342
     28 C         141.8070  144.5802  158.7563 C.ar    1  UNL1        0.1343
     29 N         142.4506  145.6740  157.9566 N.ar    1  UNL1       -0.2293
     30 C         141.7591  146.2225  156.7436 C.ar    1  UNL1        0.0974
     31 C         139.7330  146.2258  155.1175 C.3     1  UNL1        0.1008
     32 N         138.9776  150.6479  154.7652 N.3     1  UNL1       -0.2703
     33 C         139.7571  149.9331  153.7015 C.3     1  UNL1        0.0897
     34 C         140.0089  148.4591  153.8189 C.3     1  UNL1        0.0899
     35 N         139.4812  147.6998  155.0001 N.3     1  UNL1       -0.2665
     36 C         138.7017  148.4146  156.0638 C.3     1  UNL1        0.0899
     37 C         138.4499  149.8886  155.9464 C.3     1  UNL1        0.0897
     38 C         138.4453  152.7304  153.3058 C.3     1  UNL1        0.0188
     39 C         138.7258  152.1219  154.6478 C.3     1  UNL1        0.0722
@<TRIPOS>BOND
     1    38    39    1
     2    39    32    1
     3    32    33    1
     4    33    34    1
     5    34    35    1
     6    35    31    1
     7    31    25    1
     8    25    26   ar
     9    26    27   ar
    10    27    28   ar
    11    28    23    1
    12    23     1    1
    13     1     2   ar
    14     2     3   ar
    15     3     4   ar
    16     4     5    1
    17     4     6   ar
    18     6     8    1
    19     8     9   ar
    20     9    10   ar
    21    10    11    1
    22    10    12   ar
    23    12    13   ar
    24    13    14   ar
    25    14    15   ar
    26    15    16   ar
    27    16    17   ar
    28    15    18    1
    29    18    19    1
    30    18    20    1
    31    18    21    1
    32    21    22    1
    33     6     7   ar
    34    28    29   ar
    35    29    30   ar
    36    35    36    1
    37    36    37    1
    38    37    32    1
    39    30    25   ar
    40     7     1   ar
    41    17     8   ar
    42    16    12   ar
    43    22    14    1
    44    23    24    1
@<TRIPOS>MOLECULE
*****
 39 44 0 0 0
SMALL
GASTEIGER

@<TRIPOS>ATOM
      1 C         142.2333  140.4909  161.0070 C.ar    1  UNL1        0.2219
      2 N         143.7307  140.4062  161.0305 N.ar    1  UNL1       -0.2096
      3 C         144.4502  140.2017  162.3307 C.ar    1  UNL1        0.1329
      4 C         143.6721  140.0818  163.6075 C.ar    1  UNL1        0.1768
      5 F         144.3915  139.8773  164.9078 F       1  UNL1       -0.2009
      6 C         142.1746  140.1665  163.5841 C.ar    1  UNL1        0.1132
      7 N         141.4552  140.3711  162.2838 N.ar    1  UNL1       -0.2112
      8 C         141.3966  140.0467  164.8610 C.ar    1  UNL1        0.0238
      9 C         140.1178  139.2632  164.8893 C.ar    1  UNL1        0.0329
     10 C         139.3398  139.1434  166.1662 C.ar    1  UNL1        0.1591
     11 F         138.0611  138.3599  166.1946 F       1  UNL1       -0.2025
     12 C         139.8407  139.8070  167.4147 C.ar    1  UNL1        0.1256
     13 N         139.2933  139.8636  168.8102 N.ar    1  UNL1       -0.2287
     14 C         140.2339  140.6820  169.6442 C.ar    1  UNL1        0.1203
     15 N         141.3625  141.1313  168.7642 N.ar    1  UNL1       -0.3184
     16 C         141.1195  140.5906  167.3863 C.ar    1  UNL1        0.0808
     17 C         141.8974  140.7104  166.1095 C.ar    1  UNL1        0.0205
     18 C         142.3030  141.9497  169.5982 C.3     1  UNL1        0.0700
     19 C         143.0810  142.0695  168.3213 C.3     1  UNL1        0.0227
     20 C         143.4062  142.7932  170.1653 C.3     1  UNL1        0.0227
     21 C         141.7557  142.0062  170.9936 C.3     1  UNL1        0.0287
     22 C         140.4769  141.2227  171.0220 C.3     1  UNL1        0.0658
     23 N         141.5139  140.6955  159.7068 N.pl3   1  UNL1       -0.2680
     24 H         141.0243  141.5335  159.5416 H       1  UNL1        0.1565
     25 C         141.5939  137.4786  156.5610 C.ar    1  UNL1        0.0131
     26 C         140.3672  137.6754  157.4015 C.ar    1  UNL1        0.0015
     27 C         140.3406  138.7477  158.4500 C.ar    1  UNL1        0.0342
     28 C         141.5407  139.6233  158.6582 C.ar    1  UNL1        0.1343
     29 N         142.7674  139.4265  157.8177 N.ar    1  UNL1       -0.2293
     30 C         142.7940  138.3541  156.7691 C.ar    1  UNL1        0.0974
     31 C         141.6207  136.4064  155.5124 C.3     1  UNL1        0.1008
     32 N         142.8350  132.2149  156.6107 N.3     1  UNL1       -0.2703
     33 C         141.7943  132.4418  155.5546 C.3     1  UNL1        0.0897
     34 C         141.3895  133.8390  155.1885 C.3     1  UNL1        0.0899
     35 N         142.0255  135.0092  155.8785 N.3     1  UNL1       -0.2665
     36 C         143.0662  134.7823  156.9346 C.3     1  UNL1        0.0899
     37 C         143.4710  133.3851  157.3007 C.3     1  UNL1        0.0897
     38 C         144.4369  130.5883  157.8509 C.3     1  UNL1        0.0188
     39 C         143.2398  130.8177  156.9768 C.3     1  UNL1        0.0722
@<TRIPOS>BOND
     1    38    39    1
     2    39    32    1
     3    32    33    1
     4    33    34    1
     5    34    35    1
     6    35    31    1
     7    31    25    1
     8    25    26   ar
     9    26    27   ar
    10    27    28   ar
    11    28    23    1
    12    23     1    1
    13     1     2   ar
    14     2     3   ar
    15     3     4   ar
    16     4     5    1
    17     4     6   ar
    18     6     8    1
    19     8     9   ar
    20     9    10   ar
    21    10    11    1
    22    10    12   ar
    23    12    13   ar
    24    13    14   ar
    25    14    15   ar
    26    15    16   ar
    27    16    17   ar
    28    15    18    1
    29    18    19    1
    30    18    20    1
    31    18    21    1
    32    21    22    1
    33     6     7   ar
    34    28    29   ar
    35    29    30   ar
    36    35    36    1
    37    36    37    1
    38    37    32    1
    39    30    25   ar
    40     7     1   ar
    41    17     8   ar
    42    16    12   ar
    43    22    14    1
    44    23    24    1
@<TRIPOS>MOLECULE
*****
 39 44 0 0 0
SMALL
GASTEIGER

@<TRIPOS>ATOM
      1 C         142.0508  144.0712  161.4414 C.ar    1  UNL1        0.2219
      2 N         143.3412  143.4924  160.9416 N.ar    1  UNL1       -0.2096
      3 C         143.9206  142.2741  161.5975 C.ar    1  UNL1        0.1329
      4 C         143.2096  141.6347  162.7532 C.ar    1  UNL1        0.1768
      5 F         143.7890  140.4165  163.4091 F       1  UNL1       -0.2009
      6 C         141.9192  142.2136  163.2530 C.ar    1  UNL1        0.1132
      7 N         141.3398  143.4319  162.5971 N.ar    1  UNL1       -0.2112
      8 C         141.2082  141.5742  164.4088 C.ar    1  UNL1        0.0238
      9 C         140.0008  140.7181  164.1657 C.ar    1  UNL1        0.0329
     10 C         139.2898  140.0786  165.3215 C.ar    1  UNL1        0.1591
     11 F         138.0824  139.2225  165.0785 F       1  UNL1       -0.2025
     12 C         139.7863  140.2954  166.7202 C.ar    1  UNL1        0.1256
     13 N         139.2954  139.7988  168.0478 N.ar    1  UNL1       -0.2287
     14 C         140.1995  140.3480  169.1113 C.ar    1  UNL1        0.1203
     15 N         141.2492  141.1841  168.4410 N.ar    1  UNL1       -0.3184
     16 C         140.9938  141.1516  166.9632 C.ar    1  UNL1        0.0808
     17 C         141.7047  141.7910  165.8075 C.ar    1  UNL1        0.0205
     18 C         142.1533  141.7333  169.5044 C.3     1  UNL1        0.0700
     19 C         142.8642  142.3727  168.3487 C.3     1  UNL1        0.0227
     20 C         143.2060  142.4162  170.3263 C.3     1  UNL1        0.0227
     21 C         141.6624  141.2367  170.8320 C.3     1  UNL1        0.0287
     22 C         140.4549  140.3805  170.5890 C.3     1  UNL1        0.0658
     23 N         141.4714  145.2895  160.7855 N.pl3   1  UNL1       -0.2680
     24 H         141.2289  146.0733  161.3297 H       1  UNL1        0.1565
     25 C         140.8418  145.3615  156.3303 C.ar    1  UNL1        0.0131
     26 C         139.7737  144.8141  157.2300 C.ar    1  UNL1        0.0015
     27 C         139.9836  144.7902  158.7150 C.ar    1  UNL1        0.0342
     28 C         141.2616  145.3135  159.3005 C.ar    1  UNL1        0.1343
     29 N         142.3298  145.8608  158.4008 N.ar    1  UNL1       -0.2293
     30 C         142.1199  145.8848  156.9157 C.ar    1  UNL1        0.0974
     31 C         140.6320  145.3855  154.8453 C.3     1  UNL1        0.1008
     32 N         140.2750  149.3176  152.6865 N.3     1  UNL1       -0.2703
     33 C         141.0294  148.1833  152.0588 C.3     1  UNL1        0.0897
     34 C         141.1484  146.8725  152.7784 C.3     1  UNL1        0.0899
     35 N         140.5130  146.6962  154.1257 N.3     1  UNL1       -0.2665
     36 C         139.7586  147.8306  154.7534 C.3     1  UNL1        0.0899
     37 C         139.6396  149.1413  154.0338 C.3     1  UNL1        0.0897
     38 C         138.9728  151.5161  152.2160 C.3     1  UNL1        0.0188
     39 C         140.1560  150.6284  151.9669 C.3     1  UNL1        0.0722
@<TRIPOS>BOND
     1    38    39    1
     2    39    32    1
     3    32    33    1
     4    33    34    1
     5    34    35    1
     6    35    31    1
     7    31    25    1
     8    25    26   ar
     9    26    27   ar
    10    27    28   ar
    11    28    23    1
    12    23     1    1
    13     1     2   ar
    14     2     3   ar
    15     3     4   ar
    16     4     5    1
    17     4     6   ar
    18     6     8    1
    19     8     9   ar
    20     9    10   ar
    21    10    11    1
    22    10    12   ar
    23    12    13   ar
    24    13    14   ar
    25    14    15   ar
    26    15    16   ar
    27    16    17   ar
    28    15    18    1
    29    18    19    1
    30    18    20    1
    31    18    21    1
    32    21    22    1
    33     6     7   ar
    34    28    29   ar
    35    29    30   ar
    36    35    36    1
    37    36    37    1
    38    37    32    1
    39    30    25   ar
    40     7     1   ar
    41    17     8   ar
    42    16    12   ar
    43    22    14    1
    44    23    24    1
@<TRIPOS>MOLECULE
*****
 39 44 0 0 0
SMALL
GASTEIGER

@<TRIPOS>ATOM
      1 C         142.9807  142.3407  160.9783 C.ar    1  UNL1        0.2219
      2 N         142.6738  143.7737  160.6586 N.ar    1  UNL1       -0.2096
      3 C         141.7863  144.5715  161.5673 C.ar    1  UNL1        0.1329
      4 C         141.2056  143.9363  162.7958 C.ar    1  UNL1        0.1768
      5 F         140.3181  144.7340  163.7046 F       1  UNL1       -0.2009
      6 C         141.5125  142.5032  163.1156 C.ar    1  UNL1        0.1132
      7 N         142.4000  141.7054  162.2068 N.ar    1  UNL1       -0.2112
      8 C         140.9318  141.8679  164.3442 C.ar    1  UNL1        0.0238
      9 C         139.6335  141.1214  164.2602 C.ar    1  UNL1        0.0329
     10 C         139.0528  140.4862  165.4888 C.ar    1  UNL1        0.1591
     11 F         137.7545  139.7397  165.4049 F       1  UNL1       -0.2025
     12 C         139.7705  140.5976  166.8012 C.ar    1  UNL1        0.1256
     13 N         139.4445  140.0792  168.1706 N.ar    1  UNL1       -0.2287
     14 C         140.5414  140.5054  169.1008 C.ar    1  UNL1        0.1203
     15 N         141.5452  141.2872  168.3064 N.ar    1  UNL1       -0.3184
     16 C         141.0688  141.3441  166.8852 C.ar    1  UNL1        0.0808
     17 C         141.6495  141.9793  165.6566 C.ar    1  UNL1        0.0205
     18 C         142.6421  141.7134  169.2365 C.3     1  UNL1        0.0700
     19 C         143.2228  142.3486  168.0080 C.3     1  UNL1        0.0227
     20 C         143.8603  142.2724  169.9099 C.3     1  UNL1        0.0227
     21 C         142.3161  141.1950  170.6059 C.3     1  UNL1        0.0287
     22 C         141.0178  140.4485  170.5220 C.3     1  UNL1        0.0658
     23 N         143.8682  141.5429  160.0695 N.pl3   1  UNL1       -0.2680
     24 H         144.8460  141.6446  160.1227 H       1  UNL1        0.1565
     25 C         142.0611  138.6850  157.1002 C.ar    1  UNL1        0.0131
     26 C         141.2561  139.1533  158.2761 C.ar    1  UNL1        0.0015
     27 C         141.8585  140.1059  159.2658 C.ar    1  UNL1        0.0342
     28 C         143.2659  140.5903  159.0798 C.ar    1  UNL1        0.1343
     29 N         144.0709  140.1220  157.9039 N.ar    1  UNL1       -0.2293
     30 C         143.4685  139.1693  156.9141 C.ar    1  UNL1        0.0974
     31 C         141.4588  137.7324  156.1105 C.3     1  UNL1        0.1008
     32 N         142.5582  133.3704  156.2296 N.3     1  UNL1       -0.2703
     33 C         143.2343  134.3397  157.1532 C.3     1  UNL1        0.0897
     34 C         142.8679  135.7937  157.1135 C.3     1  UNL1        0.0899
     35 N         141.8252  136.2784  156.1502 N.3     1  UNL1       -0.2665
     36 C         141.1491  135.3090  155.2265 C.3     1  UNL1        0.0899
     37 C         141.5156  133.8550  155.2662 C.3     1  UNL1        0.0897
     38 C         144.3150  131.4832  155.9099 C.3     1  UNL1        0.0188
     39 C         142.9247  131.9164  156.2693 C.3     1  UNL1        0.0722
@<TRIPOS>BOND
     1    38    39    1
     2    39    32    1
     3    32    33    1
     4    33    34    1
     5    34    35    1
     6    35    31    1
     7    31    25    1
     8    25    26   ar
     9    26    27   ar
    10    27    28   ar
    11    28    23    1
    12    23     1    1
    13     1     2   ar
    14     2     3   ar
    15     3     4   ar
    16     4     5    1
    17     4     6   ar
    18     6     8    1
    19     8     9   ar
    20     9    10   ar
    21    10    11    1
    22    10    12   ar
    23    12    13   ar
    24    13    14   ar
    25    14    15   ar
    26    15    16   ar
    27    16    17   ar
    28    15    18    1
    29    18    19    1
    30    18    20    1
    31    18    21    1
    32    21    22    1
    33     6     7   ar
    34    28    29   ar
    35    29    30   ar
    36    35    36    1
    37    36    37    1
    38    37    32    1
    39    30    25   ar
    40     7     1   ar
    41    17     8   ar
    42    16    12   ar
    43    22    14    1
    44    23    24    1
