@<TRIPOS>MOLECULE
*****
 32 35 0 0 0
SMALL
GASTEIGER

@<TRIPOS>ATOM
      1 C         140.0199  138.8056  160.6336 C.ar    1  UNL1        0.0000
      2 C         141.3082  138.3435  160.0198 C.ar    1  UNL1        0.0000
      3 N         141.1394  138.3485  158.5293 N.ar    1  UNL1        0.0000
      4 N         139.7469  138.8136  158.2220 N.ar    1  UNL1        0.0000
      5 N         139.0550  139.0961  159.5226 N.ar    1  UNL1        0.0000
      6 C         142.1804  137.9570  157.5227 C.3     1  UNL1        0.0000
      7 C         142.1889  136.5109  157.1242 C.3     1  UNL1        0.0000
      8 C         143.0944  135.8140  156.1522 C.3     1  UNL1        0.0000
      9 C         144.2148  136.3911  155.3389 C.3     1  UNL1        0.0000
     10 C         144.7066  137.8076  155.2966 C.3     1  UNL1        0.0000
     11 N         144.1994  138.9968  156.0571 N.am    1  UNL1        0.0000
     12 C         143.0751  139.0632  157.0479 C.2     1  UNL1        0.0000
     13 O         142.8106  140.4148  157.6423 O.2     1  UNL1        0.0000
     14 H         144.6661  139.8460  155.8830 H       1  UNL1        0.0000
     15 SI        142.8465  134.3460  155.9695 Si      1  UNL1        0.0000
     16 C         141.8925  134.6463  154.8516 C.3     1  UNL1        0.0000
     17 C         143.8005  134.0457  157.0874 C.3     1  UNL1        0.0000
     18 C         142.5985  132.8780  155.7868 C.3     1  UNL1        0.0000
     19 C         138.7904  140.3305  164.0852 C.ar    1  UNL1        0.0000
     20 C         139.0653  140.1848  162.6177 C.ar    1  UNL1        0.0000
     21 C         139.7449  138.9515  162.1010 C.ar    1  UNL1        0.0000
     22 C         140.1496  137.8639  163.0516 C.ar    1  UNL1        0.0000
     23 C         139.8746  138.0097  164.5189 C.ar    1  UNL1        0.0000
     24 C         139.1950  139.2431  165.0357 C.ar    1  UNL1        0.0000
     25 N         138.9201  139.3888  166.5031 N.ar    1  UNL1        0.0000
     26 C         137.7943  138.7459  167.2574 C.ar    1  UNL1        0.0000
     27 N         137.9012  139.1629  168.6943 N.ar    1  UNL1        0.0000
     28 C         139.0932  140.0635  168.8280 C.ar    1  UNL1        0.0000
     29 C         139.5715  140.7109  170.0938 C.3     1  UNL1        0.0000
     30 C         139.7230  140.2033  167.4739 C.ar    1  UNL1        0.0000
     31 C         138.8588  142.8627  164.6630 C.3     1  UNL1        0.0000
     32 O         138.1108  141.5639  164.6020 O.3     1  UNL1        0.0000
@<TRIPOS>BOND
     1    31    32    1
     2    32    19    1
     3    19    20   ar
     4    20    21   ar
     5    21     1    1
     6     1     2   ar
     7     2     3   ar
     8     3     6    1
     9     6     7    1
    10     7     8    1
    11     8    15    1
    12    15    16    1
    13    15    17    1
    14    15    18    1
    15     8     9    1
    16     9    10    1
    17    10    11    1
    18    11    12   am
    19    12    13    2
    20     3     4   ar
    21     4     5   ar
    22    21    22   ar
    23    22    23   ar
    24    23    24   ar
    25    24    25    1
    26    25    26   ar
    27    26    27   ar
    28    27    28   ar
    29    28    29    1
    30    28    30   ar
    31    24    19   ar
    32    30    25   ar
    33     5     1   ar
    34    12     6    1
    35    11    14    1
@<TRIPOS>MOLECULE
*****
 32 35 0 0 0
SMALL
GASTEIGER

@<TRIPOS>ATOM
      1 C         141.2022  139.7864  159.1685 C.ar    1  UNL1        0.0000
      2 C         140.0399  140.1680  160.0366 C.ar    1  UNL1        0.0000
      3 N         140.4675  141.3125  160.9068 N.ar    1  UNL1        0.0000
      4 N         141.8940  141.6382  160.5766 N.ar    1  UNL1        0.0000
      5 N         142.3480  140.6949  159.5022 N.ar    1  UNL1        0.0000
      6 C         139.6179  142.0091  161.9281 C.3     1  UNL1        0.0000
      7 C         139.7133  141.4759  163.3269 C.3     1  UNL1        0.0000
      8 C         138.9996  141.9487  164.5587 C.3     1  UNL1        0.0000
      9 C         138.0143  143.0713  164.6957 C.3     1  UNL1        0.0000
     10 C         137.4992  143.9985  163.6350 C.3     1  UNL1        0.0000
     11 N         137.8424  144.0319  162.1752 N.am    1  UNL1        0.0000
     12 C         138.7853  143.1465  161.4156 C.2     1  UNL1        0.0000
     13 O         138.9124  143.4371  159.9495 O.2     1  UNL1        0.0000
     14 H         137.3888  144.7269  161.6456 H       1  UNL1        0.0000
     15 SI        139.3127  141.1998  165.8201 Si      1  UNL1        0.0000
     16 C         138.3200  140.1420  165.4383 C.3     1  UNL1        0.0000
     17 C         140.3053  142.2575  166.2018 C.3     1  UNL1        0.0000
     18 C         139.6257  140.4508  167.0814 C.3     1  UNL1        0.0000
     19 C         139.9558  137.1804  156.4471 C.ar    1  UNL1        0.0000
     20 C         139.9419  138.2781  157.4694 C.ar    1  UNL1        0.0000
     21 C         141.2160  138.6888  158.1462 C.ar    1  UNL1        0.0000
     22 C         142.5040  138.0019  157.8006 C.ar    1  UNL1        0.0000
     23 C         142.5178  136.9043  156.7784 C.ar    1  UNL1        0.0000
     24 C         141.2437  136.4936  156.1016 C.ar    1  UNL1        0.0000
     25 N         141.2576  135.3960  155.0793 N.ar    1  UNL1        0.0000
     26 C         141.0457  135.5626  153.6038 C.ar    1  UNL1        0.0000
     27 N         141.1430  134.2086  152.9656 N.ar    1  UNL1        0.0000
     28 C         141.4152  133.2052  154.0468 C.ar    1  UNL1        0.0000
     29 C         141.5865  131.7273  153.8553 C.3     1  UNL1        0.0000
     30 C         141.4860  133.9389  155.3532 C.ar    1  UNL1        0.0000
     31 C         138.1072  137.6181  154.6747 C.3     1  UNL1        0.0000
     32 O         138.6817  136.7697  155.7703 O.3     1  UNL1        0.0000
@<TRIPOS>BOND
     1    31    32    1
     2    32    19    1
     3    19    20   ar
     4    20    21   ar
     5    21     1    1
     6     1     2   ar
     7     2     3   ar
     8     3     6    1
     9     6     7    1
    10     7     8    1
    11     8    15    1
    12    15    16    1
    13    15    17    1
    14    15    18    1
    15     8     9    1
    16     9    10    1
    17    10    11    1
    18    11    12   am
    19    12    13    2
    20     3     4   ar
    21     4     5   ar
    22    21    22   ar
    23    22    23   ar
    24    23    24   ar
    25    24    25    1
    26    25    26   ar
    27    26    27   ar
    28    27    28   ar
    29    28    29    1
    30    28    30   ar
    31    24    19   ar
    32    30    25   ar
    33     5     1   ar
    34    12     6    1
    35    11    14    1
@<TRIPOS>MOLECULE
*****
 32 35 0 0 0
SMALL
GASTEIGER

@<TRIPOS>ATOM
      1 C         143.2621  138.8587  159.4873 C.ar    1  UNL1        0.0000
      2 C         142.4861  137.9452  158.5854 C.ar    1  UNL1        0.0000
      3 N         142.8363  138.2868  157.1674 N.ar    1  UNL1        0.0000
      4 N         143.8285  139.4113  157.1929 N.ar    1  UNL1        0.0000
      5 N         144.0917  139.7648  158.6268 N.ar    1  UNL1        0.0000
      6 C         142.2901  137.6207  155.9393 C.3     1  UNL1        0.0000
      7 C         140.9881  138.1636  155.4292 C.3     1  UNL1        0.0000
      8 C         140.1925  137.7197  154.2374 C.3     1  UNL1        0.0000
      9 C         140.5024  136.6235  153.2618 C.3     1  UNL1        0.0000
     10 C         141.6844  135.7002  153.2366 C.3     1  UNL1        0.0000
     11 N         142.8484  135.6453  154.1810 N.am    1  UNL1        0.0000
     12 C         143.1179  136.5001  155.3839 C.2     1  UNL1        0.0000
     13 O         144.3826  136.1935  156.1299 O.2     1  UNL1        0.0000
     14 H         143.5250  134.9574  153.9856 H       1  UNL1        0.0000
     15 SI        138.9186  138.4716  153.9887 Si      1  UNL1        0.0000
     16 C         139.6654  139.4548  153.1369 C.3     1  UNL1        0.0000
     17 C         138.1719  137.4884  154.8405 C.3     1  UNL1        0.0000
     18 C         137.6448  139.2235  153.7400 C.3     1  UNL1        0.0000
     19 C         144.1663  139.6796  163.2634 C.ar    1  UNL1        0.0000
     20 C         144.2122  139.6734  161.7641 C.ar    1  UNL1        0.0000
     21 C         143.2163  138.8649  160.9866 C.ar    1  UNL1        0.0000
     22 C         142.1745  138.0626  161.7085 C.ar    1  UNL1        0.0000
     23 C         142.1287  138.0688  163.2077 C.ar    1  UNL1        0.0000
     24 C         143.1246  138.8773  163.9852 C.ar    1  UNL1        0.0000
     25 N         143.0787  138.8834  165.4845 N.ar    1  UNL1        0.0000
     26 C         143.8627  137.9849  166.3943 C.ar    1  UNL1        0.0000
     27 N         143.5092  138.3353  167.8093 N.ar    1  UNL1        0.0000
     28 C         142.5067  139.4505  167.7740 C.ar    1  UNL1        0.0000
     29 C         141.8802  140.1110  168.9662 C.3     1  UNL1        0.0000
     30 C         142.2405  139.7893  166.3372 C.ar    1  UNL1        0.0000
     31 C         145.7481  141.7329  163.4431 C.3     1  UNL1        0.0000
     32 O         145.1622  140.4881  164.0409 O.3     1  UNL1        0.0000
@<TRIPOS>BOND
     1    31    32    1
     2    32    19    1
     3    19    20   ar
     4    20    21   ar
     5    21     1    1
     6     1     2   ar
     7     2     3   ar
     8     3     6    1
     9     6     7    1
    10     7     8    1
    11     8    15    1
    12    15    16    1
    13    15    17    1
    14    15    18    1
    15     8     9    1
    16     9    10    1
    17    10    11    1
    18    11    12   am
    19    12    13    2
    20     3     4   ar
    21     4     5   ar
    22    21    22   ar
    23    22    23   ar
    24    23    24   ar
    25    24    25    1
    26    25    26   ar
    27    26    27   ar
    28    27    28   ar
    29    28    29    1
    30    28    30   ar
    31    24    19   ar
    32    30    25   ar
    33     5     1   ar
    34    12     6    1
    35    11    14    1
@<TRIPOS>MOLECULE
*****
 32 35 0 0 0
SMALL
GASTEIGER

@<TRIPOS>ATOM
      1 C         140.6488  144.2769  162.2020 C.ar    1  UNL1        0.0000
      2 C         140.8618  143.7011  160.8333 C.ar    1  UNL1        0.0000
      3 N         140.2946  144.6635  159.8322 N.ar    1  UNL1        0.0000
      4 N         139.7312  145.8340  160.5821 N.ar    1  UNL1        0.0000
      5 N         139.9501  145.5950  162.0468 N.ar    1  UNL1        0.0000
      6 C         140.2914  144.4865  158.3427 C.3     1  UNL1        0.0000
      7 C         139.1921  143.6273  157.7918 C.3     1  UNL1        0.0000
      8 C         138.9178  143.2615  156.3631 C.3     1  UNL1        0.0000
      9 C         139.6750  143.6645  155.1327 C.3     1  UNL1        0.0000
     10 C         140.8935  144.5329  155.0268 C.3     1  UNL1        0.0000
     11 N         141.6558  145.2126  156.1253 N.am    1  UNL1        0.0000
     12 C         141.3878  145.1920  157.6011 C.2     1  UNL1        0.0000
     13 O         142.3425  145.9812  158.4470 O.2     1  UNL1        0.0000
     14 H         142.4350  145.7424  155.8401 H       1  UNL1        0.0000
     15 SI        137.7291  142.3756  156.1350 Si      1  UNL1        0.0000
     16 C         138.5573  141.1746  156.4841 C.3     1  UNL1        0.0000
     17 C         136.9010  143.5765  155.7859 C.3     1  UNL1        0.0000
     18 C         136.5405  141.4896  155.9068 C.3     1  UNL1        0.0000
     19 C         142.8456  142.4200  164.9363 C.ar    1  UNL1        0.0000
     20 C         142.4324  143.0517  163.6400 C.ar    1  UNL1        0.0000
     21 C         141.0621  143.6452  163.4982 C.ar    1  UNL1        0.0000
     22 C         140.1051  143.6071  164.6527 C.ar    1  UNL1        0.0000
     23 C         140.5183  142.9755  165.9489 C.ar    1  UNL1        0.0000
     24 C         141.8886  142.3819  166.0907 C.ar    1  UNL1        0.0000
     25 N         142.3018  141.7503  167.3870 N.ar    1  UNL1        0.0000
     26 C         143.0698  142.4190  168.4883 C.ar    1  UNL1        0.0000
     27 N         143.2621  141.4210  169.5915 N.ar    1  UNL1        0.0000
     28 C         142.6130  140.1355  169.1720 C.ar    1  UNL1        0.0000
     29 C         142.5656  138.8688  169.9741 C.3     1  UNL1        0.0000
     30 C         142.0194  140.3390  167.8095 C.ar    1  UNL1        0.0000
     31 C         145.2239  141.9959  163.9804 C.3     1  UNL1        0.0000
     32 O         144.2158  141.8265  165.0782 O.3     1  UNL1        0.0000
@<TRIPOS>BOND
     1    31    32    1
     2    32    19    1
     3    19    20   ar
     4    20    21   ar
     5    21     1    1
     6     1     2   ar
     7     2     3   ar
     8     3     6    1
     9     6     7    1
    10     7     8    1
    11     8    15    1
    12    15    16    1
    13    15    17    1
    14    15    18    1
    15     8     9    1
    16     9    10    1
    17    10    11    1
    18    11    12   am
    19    12    13    2
    20     3     4   ar
    21     4     5   ar
    22    21    22   ar
    23    22    23   ar
    24    23    24   ar
    25    24    25    1
    26    25    26   ar
    27    26    27   ar
    28    27    28   ar
    29    28    29    1
    30    28    30   ar
    31    24    19   ar
    32    30    25   ar
    33     5     1   ar
    34    12     6    1
    35    11    14    1
@<TRIPOS>MOLECULE
*****
 32 35 0 0 0
SMALL
GASTEIGER

@<TRIPOS>ATOM
      1 C         143.0632  143.3159  161.9588 C.ar    1  UNL1        0.0000
      2 C         142.4587  142.3759  162.9593 C.ar    1  UNL1        0.0000
      3 N         143.4767  142.1231  164.0317 N.ar    1  UNL1        0.0000
      4 N         144.7102  142.9068  163.6939 N.ar    1  UNL1        0.0000
      5 N         144.4547  143.6440  162.4127 N.ar    1  UNL1        0.0000
      6 C         143.2933  141.2415  165.2313 C.3     1  UNL1        0.0000
      7 C         142.8138  141.9276  166.4760 C.3     1  UNL1        0.0000
      8 C         142.5362  141.3320  167.8245 C.3     1  UNL1        0.0000
      9 C         142.6697  139.9033  168.2612 C.3     1  UNL1        0.0000
     10 C         143.1136  138.7171  167.4574 C.3     1  UNL1        0.0000
     11 N         143.5338  138.6669  166.0183 N.am    1  UNL1        0.0000
     12 C         143.6137  139.7904  165.0277 C.2     1  UNL1        0.0000
     13 O         144.0751  139.4127  163.6513 O.2     1  UNL1        0.0000
     14 H         143.7911  137.7792  165.6792 H       1  UNL1        0.0000
     15 SI        142.0626  142.2922  168.8750 Si      1  UNL1        0.0000
     16 C         143.4632  142.4093  169.3992 C.3     1  UNL1        0.0000
     17 C         140.6621  142.1751  168.3509 C.3     1  UNL1        0.0000
     18 C         141.5891  143.2524  169.9256 C.3     1  UNL1        0.0000
     19 C         142.2478  143.9758  158.1313 C.ar    1  UNL1        0.0000
     20 C         142.9174  143.4554  159.3685 C.ar    1  UNL1        0.0000
     21 C         142.3936  143.8363  160.7215 C.ar    1  UNL1        0.0000
     22 C         141.2002  144.7377  160.8372 C.ar    1  UNL1        0.0000
     23 C         140.5306  145.2580  159.6000 C.ar    1  UNL1        0.0000
     24 C         141.0544  144.8771  158.2470 C.ar    1  UNL1        0.0000
     25 N         140.3848  145.3976  157.0098 N.ar    1  UNL1        0.0000
     26 C         139.3114  144.6998  156.2282 C.ar    1  UNL1        0.0000
     27 N         138.9342  145.5782  155.0723 N.ar    1  UNL1        0.0000
     28 C         139.7744  146.8189  155.1396 C.ar    1  UNL1        0.0000
     29 C         139.7266  147.9694  154.1781 C.3     1  UNL1        0.0000
     30 C         140.6709  146.7074  156.3370 C.ar    1  UNL1        0.0000
     31 C         142.3775  142.2847  156.1631 C.3     1  UNL1        0.0000
     32 O         142.7715  143.5949  156.7782 O.3     1  UNL1        0.0000
@<TRIPOS>BOND
     1    31    32    1
     2    32    19    1
     3    19    20   ar
     4    20    21   ar
     5    21     1    1
     6     1     2   ar
     7     2     3   ar
     8     3     6    1
     9     6     7    1
    10     7     8    1
    11     8    15    1
    12    15    16    1
    13    15    17    1
    14    15    18    1
    15     8     9    1
    16     9    10    1
    17    10    11    1
    18    11    12   am
    19    12    13    2
    20     3     4   ar
    21     4     5   ar
    22    21    22   ar
    23    22    23   ar
    24    23    24   ar
    25    24    25    1
    26    25    26   ar
    27    26    27   ar
    28    27    28   ar
    29    28    29    1
    30    28    30   ar
    31    24    19   ar
    32    30    25   ar
    33     5     1   ar
    34    12     6    1
    35    11    14    1
@<TRIPOS>MOLECULE
*****
 32 35 0 0 0
SMALL
GASTEIGER

@<TRIPOS>ATOM
      1 C         143.2923  142.7626  162.2701 C.ar    1  UNL1        0.0000
      2 C         142.5925  142.0608  163.3961 C.ar    1  UNL1        0.0000
      3 N         143.6256  141.6652  164.4091 N.ar    1  UNL1        0.0000
      4 N         144.9639  142.1224  163.9092 N.ar    1  UNL1        0.0000
      5 N         144.7579  142.8006  162.5872 N.ar    1  UNL1        0.0000
      6 C         143.3661  140.9397  165.6961 C.3     1  UNL1        0.0000
      7 C         142.8169  141.7748  166.8146 C.3     1  UNL1        0.0000
      8 C         142.4560  141.3515  168.2077 C.3     1  UNL1        0.0000
      9 C         142.5553  139.9887  168.8263 C.3     1  UNL1        0.0000
     10 C         143.0399  138.7125  168.2047 C.3     1  UNL1        0.0000
     11 N         143.5450  138.4839  166.8109 N.am    1  UNL1        0.0000
     12 C         143.6901  139.4752  165.6945 C.2     1  UNL1        0.0000
     13 O         144.2308  138.9297  164.4060 O.2     1  UNL1        0.0000
     14 H         143.8172  137.5614  166.6011 H       1  UNL1        0.0000
     15 SI        141.9258  142.4344  169.1001 Si      1  UNL1        0.0000
     16 C         140.5672  142.2765  168.4842 C.3     1  UNL1        0.0000
     17 C         143.2843  142.5922  169.7159 C.3     1  UNL1        0.0000
     18 C         141.3955  143.5172  169.9924 C.3     1  UNL1        0.0000
     19 C         140.8763  144.8885  159.9477 C.ar    1  UNL1        0.0000
     20 C         141.5278  144.3240  161.1753 C.ar    1  UNL1        0.0000
     21 C         142.6407  143.3271  161.0426 C.ar    1  UNL1        0.0000
     22 C         143.1022  142.8948  159.6823 C.ar    1  UNL1        0.0000
     23 C         142.4507  143.4593  158.4549 C.ar    1  UNL1        0.0000
     24 C         141.3377  144.4562  158.5875 C.ar    1  UNL1        0.0000
     25 N         140.6863  145.0207  157.3599 N.ar    1  UNL1        0.0000
     26 C         139.5128  144.4319  156.6345 C.ar    1  UNL1        0.0000
     27 N         139.1953  145.3205  155.4685 N.ar    1  UNL1        0.0000
     28 C         140.1725  146.4584  155.4733 C.ar    1  UNL1        0.0000
     29 C         140.2199  147.5840  154.4829 C.3     1  UNL1        0.0000
     30 C         141.0941  146.2732  156.6422 C.ar    1  UNL1        0.0000
     31 C         139.4366  146.4705  161.4223 C.3     1  UNL1        0.0000
     32 O         139.7633  145.8854  160.0803 O.3     1  UNL1        0.0000
@<TRIPOS>BOND
     1    31    32    1
     2    32    19    1
     3    19    20   ar
     4    20    21   ar
     5    21     1    1
     6     1     2   ar
     7     2     3   ar
     8     3     6    1
     9     6     7    1
    10     7     8    1
    11     8    15    1
    12    15    16    1
    13    15    17    1
    14    15    18    1
    15     8     9    1
    16     9    10    1
    17    10    11    1
    18    11    12   am
    19    12    13    2
    20     3     4   ar
    21     4     5   ar
    22    21    22   ar
    23    22    23   ar
    24    23    24   ar
    25    24    25    1
    26    25    26   ar
    27    26    27   ar
    28    27    28   ar
    29    28    29    1
    30    28    30   ar
    31    24    19   ar
    32    30    25   ar
    33     5     1   ar
    34    12     6    1
    35    11    14    1
@<TRIPOS>MOLECULE
*****
 32 35 0 0 0
SMALL
GASTEIGER

@<TRIPOS>ATOM
      1 C         141.6851  138.9056  161.6297 C.ar    1  UNL1        0.0000
      2 C         142.7371  138.5138  160.6348 C.ar    1  UNL1        0.0000
      3 N         142.0575  138.2378  159.3263 N.ar    1  UNL1        0.0000
      4 N         140.5857  138.4591  159.5126 N.ar    1  UNL1        0.0000
      5 N         140.3556  138.8719  160.9362 N.ar    1  UNL1        0.0000
      6 C         142.7314  137.8147  158.0547 C.3     1  UNL1        0.0000
      7 C         142.6080  136.3612  157.7053 C.3     1  UNL1        0.0000
      8 C         143.1624  135.6350  156.5155 C.3     1  UNL1        0.0000
      9 C         143.9769  136.1830  155.3815 C.3     1  UNL1        0.0000
     10 C         144.4384  137.5925  155.1570 C.3     1  UNL1        0.0000
     11 N         144.1992  138.8022  156.0112 N.am    1  UNL1        0.0000
     12 C         143.4395  138.9010  157.3008 C.2     1  UNL1        0.0000
     13 O         143.3801  140.2668  157.9181 O.2     1  UNL1        0.0000
     14 H         144.5929  139.6423  155.6818 H       1  UNL1        0.0000
     15 SI        142.8624  134.1667  156.4514 Si      1  UNL1        0.0000
     16 C         144.0084  133.8923  157.3797 C.3     1  UNL1        0.0000
     17 C         141.7166  134.4412  155.5233 C.3     1  UNL1        0.0000
     18 C         142.5626  132.6984  156.3875 C.3     1  UNL1        0.0000
     19 C         141.0099  140.0622  165.3656 C.ar    1  UNL1        0.0000
     20 C         140.7735  139.7001  163.9292 C.ar    1  UNL1        0.0000
     21 C         141.9215  139.2677  163.0661 C.ar    1  UNL1        0.0000
     22 C         143.3059  139.1974  163.6392 C.ar    1  UNL1        0.0000
     23 C         143.5423  139.5595  165.0755 C.ar    1  UNL1        0.0000
     24 C         142.3943  139.9919  165.9387 C.ar    1  UNL1        0.0000
     25 N         142.6307  140.3540  167.3750 N.ar    1  UNL1        0.0000
     26 C         142.7049  139.3944  168.5255 C.ar    1  UNL1        0.0000
     27 N         142.9546  140.1867  169.7746 N.ar    1  UNL1        0.0000
     28 C         143.0347  141.6358  169.3960 C.ar    1  UNL1        0.0000
     29 C         143.2731  142.7807  170.3355 C.3     1  UNL1        0.0000
     30 C         142.8345  141.7394  167.9130 C.ar    1  UNL1        0.0000
     31 C         138.9220  139.4715  166.7946 C.3     1  UNL1        0.0000
     32 O         139.8619  140.4946  166.2289 O.3     1  UNL1        0.0000
@<TRIPOS>BOND
     1    31    32    1
     2    32    19    1
     3    19    20   ar
     4    20    21   ar
     5    21     1    1
     6     1     2   ar
     7     2     3   ar
     8     3     6    1
     9     6     7    1
    10     7     8    1
    11     8    15    1
    12    15    16    1
    13    15    17    1
    14    15    18    1
    15     8     9    1
    16     9    10    1
    17    10    11    1
    18    11    12   am
    19    12    13    2
    20     3     4   ar
    21     4     5   ar
    22    21    22   ar
    23    22    23   ar
    24    23    24   ar
    25    24    25    1
    26    25    26   ar
    27    26    27   ar
    28    27    28   ar
    29    28    29    1
    30    28    30   ar
    31    24    19   ar
    32    30    25   ar
    33     5     1   ar
    34    12     6    1
    35    11    14    1
@<TRIPOS>MOLECULE
*****
 32 35 0 0 0
SMALL
GASTEIGER

@<TRIPOS>ATOM
      1 C         138.9175  139.3900  159.4453 C.ar    1  UNL1        0.0000
      2 C         139.9082  138.6674  158.5814 C.ar    1  UNL1        0.0000
      3 N         139.5625  138.9447  157.1483 N.ar    1  UNL1        0.0000
      4 N         138.3583  139.8387  157.1266 N.ar    1  UNL1        0.0000
      5 N         137.9596  140.1139  158.5463 N.ar    1  UNL1        0.0000
      6 C         140.2928  138.4201  155.9477 C.3     1  UNL1        0.0000
      7 C         141.6077  139.0769  155.6476 C.3     1  UNL1        0.0000
      8 C         142.5662  138.7839  154.5315 C.3     1  UNL1        0.0000
      9 C         142.4467  137.7619  153.4402 C.3     1  UNL1        0.0000
     10 C         141.3391  136.7804  153.1951 C.3     1  UNL1        0.0000
     11 N         140.0775  136.5785  153.9811 N.am    1  UNL1        0.0000
     12 C         139.6120  137.3083  155.2061 C.2     1  UNL1        0.0000
     13 O         138.2906  136.8680  155.7631 O.2     1  UNL1        0.0000
     14 H         139.4755  135.8739  153.6490 H       1  UNL1        0.0000
     15 SI        143.8085  139.6241  154.5033 Si      1  UNL1        0.0000
     16 C         144.5426  138.5642  155.2701 C.3     1  UNL1        0.0000
     17 C         143.0744  140.6838  153.7365 C.3     1  UNL1        0.0000
     18 C         145.0508  140.4642  154.4751 C.3     1  UNL1        0.0000
     19 C         138.2211  140.5247  163.1840 C.ar    1  UNL1        0.0000
     20 C         138.2488  140.5259  161.6842 C.ar    1  UNL1        0.0000
     21 C         138.8897  139.3889  160.9451 C.ar    1  UNL1        0.0000
     22 C         139.5029  138.2506  161.7057 C.ar    1  UNL1        0.0000
     23 C         139.4751  138.2495  163.2054 C.ar    1  UNL1        0.0000
     24 C         138.8342  139.3865  163.9446 C.ar    1  UNL1        0.0000
     25 N         138.8065  139.3853  165.4443 N.ar    1  UNL1        0.0000
     26 C         137.8658  138.5987  166.3081 C.ar    1  UNL1        0.0000
     27 N         138.1926  138.8977  167.7413 N.ar    1  UNL1        0.0000
     28 C         139.3352  139.8692  167.7631 C.ar    1  UNL1        0.0000
     29 C         139.9845  140.4393  168.9893 C.3     1  UNL1        0.0000
     30 C         139.7147  140.1706  166.3435 C.ar    1  UNL1        0.0000
     31 C         137.7498  143.0680  163.4292 C.3     1  UNL1        0.0000
     32 O         137.5802  141.6618  163.9232 O.3     1  UNL1        0.0000
@<TRIPOS>BOND
     1    31    32    1
     2    32    19    1
     3    19    20   ar
     4    20    21   ar
     5    21     1    1
     6     1     2   ar
     7     2     3   ar
     8     3     6    1
     9     6     7    1
    10     7     8    1
    11     8    15    1
    12    15    16    1
    13    15    17    1
    14    15    18    1
    15     8     9    1
    16     9    10    1
    17    10    11    1
    18    11    12   am
    19    12    13    2
    20     3     4   ar
    21     4     5   ar
    22    21    22   ar
    23    22    23   ar
    24    23    24   ar
    25    24    25    1
    26    25    26   ar
    27    26    27   ar
    28    27    28   ar
    29    28    29    1
    30    28    30   ar
    31    24    19   ar
    32    30    25   ar
    33     5     1   ar
    34    12     6    1
    35    11    14    1
@<TRIPOS>MOLECULE
*****
 32 35 0 0 0
SMALL
GASTEIGER

@<TRIPOS>ATOM
      1 C         138.5363  139.8970  159.8621 C.ar    1  UNL1        0.0000
      2 C         138.0292  141.0512  159.0492 C.ar    1  UNL1        0.0000
      3 N         138.2023  140.7083  157.5992 N.ar    1  UNL1        0.0000
      4 N         138.8163  139.3423  157.5159 N.ar    1  UNL1        0.0000
      5 N         139.0227  138.8409  158.9146 N.ar    1  UNL1        0.0000
      6 C         137.8272  141.5786  156.4364 C.3     1  UNL1        0.0000
      7 C         138.8650  142.5726  156.0061 C.3     1  UNL1        0.0000
      8 C         138.7959  143.5733  154.8908 C.3     1  UNL1        0.0000
      9 C         137.6720  143.8272  153.9305 C.3     1  UNL1        0.0000
     10 C         136.3396  143.1431  153.8482 C.3     1  UNL1        0.0000
     11 N         135.8020  142.0362  154.7059 N.am    1  UNL1        0.0000
     12 C         136.4642  141.3399  155.8578 C.2     1  UNL1        0.0000
     13 O         135.6563  140.2625  156.5183 O.2     1  UNL1        0.0000
     14 H         134.8947  141.7256  154.4834 H       1  UNL1        0.0000
     15 SI        140.0114  144.4339  154.7124 Si      1  UNL1        0.0000
     16 C         140.5976  143.4129  153.7829 C.3     1  UNL1        0.0000
     17 C         139.4252  145.4548  155.6419 C.3     1  UNL1        0.0000
     18 C         141.2270  145.2944  154.5340 C.3     1  UNL1        0.0000
     19 C         139.2455  138.5756  163.5365 C.ar    1  UNL1        0.0000
     20 C         139.2281  138.6588  162.0388 C.ar    1  UNL1        0.0000
     21 C         138.5537  139.8138  161.3597 C.ar    1  UNL1        0.0000
     22 C         137.8968  140.8855  162.1781 C.ar    1  UNL1        0.0000
     23 C         137.9142  140.8023  163.6757 C.ar    1  UNL1        0.0000
     24 C         138.5886  139.6473  164.3549 C.ar    1  UNL1        0.0000
     25 N         138.6060  139.5642  165.8524 N.ar    1  UNL1        0.0000
     26 C         137.7098  138.7093  166.6986 C.ar    1  UNL1        0.0000
     27 N         138.0726  138.9381  168.1359 N.ar    1  UNL1        0.0000
     28 C         139.1931  139.9344  168.1781 C.ar    1  UNL1        0.0000
     29 C         139.8659  140.4528  169.4146 C.3     1  UNL1        0.0000
     30 C         139.5229  140.3214  166.7669 C.ar    1  UNL1        0.0000
     31 C         141.3936  137.4691  164.4912 C.3     1  UNL1        0.0000
     32 O         139.9199  137.4206  164.2157 O.3     1  UNL1        0.0000
@<TRIPOS>BOND
     1    31    32    1
     2    32    19    1
     3    19    20   ar
     4    20    21   ar
     5    21     1    1
     6     1     2   ar
     7     2     3   ar
     8     3     6    1
     9     6     7    1
    10     7     8    1
    11     8    15    1
    12    15    16    1
    13    15    17    1
    14    15    18    1
    15     8     9    1
    16     9    10    1
    17    10    11    1
    18    11    12   am
    19    12    13    2
    20     3     4   ar
    21     4     5   ar
    22    21    22   ar
    23    22    23   ar
    24    23    24   ar
    25    24    25    1
    26    25    26   ar
    27    26    27   ar
    28    27    28   ar
    29    28    29    1
    30    28    30   ar
    31    24    19   ar
    32    30    25   ar
    33     5     1   ar
    34    12     6    1
    35    11    14    1
