@<TRIPOS>MOLECULE
*****
 27 30 0 0 0
SMALL
GASTEIGER

@<TRIPOS>ATOM
      1 C         139.6564  140.1782  167.4717 C.ar    1  UNL1        0.2454
      2 N         139.3050  139.7181  168.8555 N.ar    1  UNL1       -0.1778
      3 C         140.2048  140.0521  170.0081 C.ar    1  UNL1        0.2163
      4 N         139.8534  139.5920  171.3919 N.pl3   1  UNL1       -0.3274
      5 N         141.4563  140.8463  169.7769 N.ar    1  UNL1       -0.2123
      6 C         141.8076  141.3064  168.3932 C.ar    1  UNL1        0.1060
      7 C         142.9658  142.0984  167.8627 C.ar    1  UNL1        0.0395
      8 C         142.7816  142.2537  166.3822 C.ar    1  UNL1        0.0779
      9 N         141.5097  141.5578  165.9977 N.ar    1  UNL1       -0.3154
     10 C         140.9077  140.9724  167.2406 C.ar    1  UNL1        0.1322
     11 H         139.0321  139.0708  171.5436 H       1  UNL1        0.1452
     12 H         140.4441  139.8113  172.1484 H       1  UNL1        0.1452
     13 O         138.7564  139.8441  166.3191 O.3     1  UNL1       -0.4524
     14 C         138.6981  138.4396  165.7957 C.3     1  UNL1        0.2559
     15 C         139.3301  138.2465  160.5569 C.3     1  UNL1        0.0754
     16 C         139.5359  138.0341  162.0275 C.ar    1  UNL1        0.1546
     17 C         138.6743  138.5817  163.1265 C.ar    1  UNL1        0.0573
     18 C         139.2454  138.1229  164.4354 C.ar    1  UNL1        0.1440
     19 N         140.4600  137.2919  164.1454 N.ar    1  UNL1       -0.0780
     20 O         140.6395  137.2370  162.6572 O.2     1  UNL1       -0.3580
     21 C         140.9398  141.4639  164.6133 C.3     1  UNL1        0.1520
     22 C         139.8520  142.4036  164.1847 C.ar    1  UNL1        0.0818
     23 C         139.4728  143.5611  165.0601 C.ar    1  UNL1        0.0167
     24 C         138.3851  144.5009  164.6316 C.ar    1  UNL1        0.0029
     25 C         137.6764  144.2829  163.3275 C.ar    1  UNL1        0.0207
     26 C         138.0556  143.1254  162.4522 C.ar    1  UNL1        0.0985
     27 N         139.1433  142.1857  162.8808 N.ar    1  UNL1       -0.2462
@<TRIPOS>BOND
     1    15    16    1
     2    16    17   ar
     3    17    18   ar
     4    18    14    1
     5    14    13    1
     6    13     1    1
     7     1     2   ar
     8     2     3   ar
     9     3     4    1
    10     3     5   ar
    11     5     6   ar
    12     6     7   ar
    13     7     8   ar
    14     8     9   ar
    15     9    21    1
    16    21    22    1
    17    22    23   ar
    18    23    24   ar
    19    24    25   ar
    20    25    26   ar
    21    26    27   ar
    22     9    10   ar
    23    18    19   ar
    24    19    20   ar
    25    20    16   ar
    26    10     1   ar
    27    10     6   ar
    28    27    22   ar
    29     4    11    1
    30     4    12    1
@<TRIPOS>MOLECULE
*****
 27 30 0 0 0
SMALL
GASTEIGER

@<TRIPOS>ATOM
      1 C         140.9850  142.6320  162.4251 C.ar    1  UNL1        0.2454
      2 N         142.2950  143.3396  162.2432 N.ar    1  UNL1       -0.1778
      3 C         142.5506  144.6379  162.9496 C.ar    1  UNL1        0.2163
      4 N         143.8607  145.3455  162.7677 N.pl3   1  UNL1       -0.3274
      5 N         141.4962  145.2286  163.8380 N.ar    1  UNL1       -0.2123
      6 C         140.1862  144.5210  164.0199 C.ar    1  UNL1        0.1060
      7 C         138.9669  144.8581  164.8260 C.ar    1  UNL1        0.0395
      8 C         137.9577  143.7680  164.6176 C.ar    1  UNL1        0.0779
      9 N         138.5533  142.7573  163.6829 N.ar    1  UNL1       -0.3154
     10 C         139.9306  143.2227  163.3135 C.ar    1  UNL1        0.1322
     11 H         144.5528  144.9578  162.1846 H       1  UNL1        0.1452
     12 H         144.0285  146.1976  163.2313 H       1  UNL1        0.1452
     13 O         140.7294  141.3337  161.7186 O.3     1  UNL1       -0.4524
     14 C         141.8682  140.4022  161.4261 C.3     1  UNL1        0.2559
     15 C         143.3905  138.3292  166.0376 C.3     1  UNL1        0.0754
     16 C         143.4230  138.9352  164.6658 C.ar    1  UNL1        0.1546
     17 C         142.2291  139.3243  163.8453 C.ar    1  UNL1        0.0573
     18 C         142.7232  139.8880  162.5462 C.ar    1  UNL1        0.1440
     19 N         144.2225  139.8474  162.5636 N.ar    1  UNL1       -0.0780
     20 O         144.6550  139.2585  163.8736 O.2     1  UNL1       -0.3580
     21 C         137.8883  141.5017  163.2020 C.3     1  UNL1        0.1520
     22 C         138.2315  140.1834  163.8299 C.ar    1  UNL1        0.0818
     23 C         138.2403  140.0438  165.3233 C.ar    1  UNL1        0.0167
     24 C         138.5836  138.7255  165.9513 C.ar    1  UNL1        0.0029
     25 C         138.9180  137.5469  165.0857 C.ar    1  UNL1        0.0207
     26 C         138.9092  137.6867  163.5923 C.ar    1  UNL1        0.0985
     27 N         138.5660  139.0049  162.9644 N.ar    1  UNL1       -0.2462
@<TRIPOS>BOND
     1    15    16    1
     2    16    17   ar
     3    17    18   ar
     4    18    14    1
     5    14    13    1
     6    13     1    1
     7     1     2   ar
     8     2     3   ar
     9     3     4    1
    10     3     5   ar
    11     5     6   ar
    12     6     7   ar
    13     7     8   ar
    14     8     9   ar
    15     9    21    1
    16    21    22    1
    17    22    23   ar
    18    23    24   ar
    19    24    25   ar
    20    25    26   ar
    21    26    27   ar
    22     9    10   ar
    23    18    19   ar
    24    19    20   ar
    25    20    16   ar
    26    10     1   ar
    27    10     6   ar
    28    27    22   ar
    29     4    11    1
    30     4    12    1
@<TRIPOS>MOLECULE
*****
 27 30 0 0 0
SMALL
GASTEIGER

@<TRIPOS>ATOM
      1 C         139.8717  140.0569  167.5792 C.ar    1  UNL1        0.2454
      2 N         138.7190  139.6157  168.4316 N.ar    1  UNL1       -0.1778
      3 C         138.6275  140.0645  169.8599 C.ar    1  UNL1        0.2163
      4 N         137.4748  139.6231  170.7124 N.pl3   1  UNL1       -0.3274
      5 N         139.6886  140.9546  170.4359 N.ar    1  UNL1       -0.2123
      6 C         140.8413  141.3959  169.5835 C.ar    1  UNL1        0.1060
      7 C         142.0285  142.2657  169.8731 C.ar    1  UNL1        0.0395
      8 C         142.8538  142.3544  168.6237 C.ar    1  UNL1        0.0779
      9 N         142.1767  141.5394  167.5619 N.ar    1  UNL1       -0.3154
     10 C         140.9328  140.9471  168.1551 C.ar    1  UNL1        0.1322
     11 H         136.7783  139.0389  170.3344 H       1  UNL1        0.1452
     12 H         137.4147  139.9177  171.6498 H       1  UNL1        0.1452
     13 O         139.9632  139.6081  166.1509 O.3     1  UNL1       -0.4524
     14 C         138.7136  139.4141  165.3441 C.3     1  UNL1        0.2559
     15 C         137.6184  144.1778  163.3471 C.3     1  UNL1        0.0754
     16 C         137.7327  142.6910  163.5098 C.ar    1  UNL1        0.1546
     17 C         138.3298  141.9761  164.6855 C.ar    1  UNL1        0.0573
     18 C         138.2362  140.5014  164.4277 C.ar    1  UNL1        0.1440
     19 N         137.5813  140.3049  163.0927 N.ar    1  UNL1       -0.0780
     20 O         137.2701  141.6582  162.5254 O.2     1  UNL1       -0.3580
     21 C         142.6587  141.3501  166.1542 C.3     1  UNL1        0.1520
     22 C         142.7205  142.5211  165.2187 C.ar    1  UNL1        0.0818
     23 C         143.9121  143.4318  165.2348 C.ar    1  UNL1        0.0167
     24 C         143.9739  144.6028  164.2994 C.ar    1  UNL1        0.0029
     25 C         142.8439  144.8629  163.3477 C.ar    1  UNL1        0.0207
     26 C         141.6522  143.9520  163.3317 C.ar    1  UNL1        0.0985
     27 N         141.5905  142.7812  164.2671 N.ar    1  UNL1       -0.2462
@<TRIPOS>BOND
     1    15    16    1
     2    16    17   ar
     3    17    18   ar
     4    18    14    1
     5    14    13    1
     6    13     1    1
     7     1     2   ar
     8     2     3   ar
     9     3     4    1
    10     3     5   ar
    11     5     6   ar
    12     6     7   ar
    13     7     8   ar
    14     8     9   ar
    15     9    21    1
    16    21    22    1
    17    22    23   ar
    18    23    24   ar
    19    24    25   ar
    20    25    26   ar
    21    26    27   ar
    22     9    10   ar
    23    18    19   ar
    24    19    20   ar
    25    20    16   ar
    26    10     1   ar
    27    10     6   ar
    28    27    22   ar
    29     4    11    1
    30     4    12    1
@<TRIPOS>MOLECULE
*****
 27 30 0 0 0
SMALL
GASTEIGER

@<TRIPOS>ATOM
      1 C         140.6757  144.2089  163.8836 C.ar    1  UNL1        0.2454
      2 N         140.5147  145.3754  162.9544 N.ar    1  UNL1       -0.1778
      3 C         139.2778  145.5006  162.1153 C.ar    1  UNL1        0.2163
      4 N         139.1167  146.6671  161.1860 N.pl3   1  UNL1       -0.3274
      5 N         138.2017  144.4593  162.2053 N.ar    1  UNL1       -0.2123
      6 C         138.3628  143.2929  163.1345 C.ar    1  UNL1        0.1060
      7 C         137.4781  142.1194  163.4348 C.ar    1  UNL1        0.0395
      8 C         138.1684  141.2689  164.4596 C.ar    1  UNL1        0.0779
      9 N         139.4796  141.9167  164.7926 N.ar    1  UNL1       -0.3154
     10 C         139.5998  143.1677  163.9736 C.ar    1  UNL1        0.1322
     11 H         139.8229  147.3505  161.1269 H       1  UNL1        0.1452
     12 H         138.3049  146.7493  160.6353 H       1  UNL1        0.1452
     13 O         141.9128  144.0837  164.7227 O.3     1  UNL1       -0.4524
     14 C         143.2660  144.1638  164.0805 C.3     1  UNL1        0.2559
     15 C         145.1684  139.2504  164.4270 C.3     1  UNL1        0.0754
     16 C         144.9103  140.6502  163.9537 C.ar    1  UNL1        0.1546
     17 C         143.9864  141.6419  164.5963 C.ar    1  UNL1        0.0573
     18 C         144.0358  142.9086  163.7945 C.ar    1  UNL1        0.1440
     19 N         144.9903  142.6998  162.6564 N.ar    1  UNL1       -0.0780
     20 O         145.5307  141.3040  162.7548 O.2     1  UNL1       -0.3580
     21 C         140.4928  141.4037  165.7725 C.3     1  UNL1        0.1520
     22 C         140.2437  141.5332  167.2460 C.ar    1  UNL1        0.0818
     23 C         139.6527  140.3859  168.0104 C.ar    1  UNL1        0.0167
     24 C         139.4035  140.5153  169.4838 C.ar    1  UNL1        0.0029
     25 C         139.7454  141.7922  170.1930 C.ar    1  UNL1        0.0207
     26 C         140.3364  142.9395  169.4285 C.ar    1  UNL1        0.0985
     27 N         140.5855  142.8100  167.9551 N.ar    1  UNL1       -0.2462
@<TRIPOS>BOND
     1    15    16    1
     2    16    17   ar
     3    17    18   ar
     4    18    14    1
     5    14    13    1
     6    13     1    1
     7     1     2   ar
     8     2     3   ar
     9     3     4    1
    10     3     5   ar
    11     5     6   ar
    12     6     7   ar
    13     7     8   ar
    14     8     9   ar
    15     9    21    1
    16    21    22    1
    17    22    23   ar
    18    23    24   ar
    19    24    25   ar
    20    25    26   ar
    21    26    27   ar
    22     9    10   ar
    23    18    19   ar
    24    19    20   ar
    25    20    16   ar
    26    10     1   ar
    27    10     6   ar
    28    27    22   ar
    29     4    11    1
    30     4    12    1
@<TRIPOS>MOLECULE
*****
 27 30 0 0 0
SMALL
GASTEIGER

@<TRIPOS>ATOM
      1 C         142.5454  141.7919  168.1083 C.ar    1  UNL1        0.2454
      2 N         143.3075  142.7124  169.0149 N.ar    1  UNL1       -0.1778
      3 C         142.7566  143.0597  170.3661 C.ar    1  UNL1        0.2163
      4 N         143.5187  143.9803  171.2728 N.pl3   1  UNL1       -0.3274
      5 N         141.4436  142.4866  170.8108 N.ar    1  UNL1       -0.2123
      6 C         140.6816  141.5661  169.9041 C.ar    1  UNL1        0.1060
      7 C         139.3720  140.8534  170.0680 C.ar    1  UNL1        0.0395
      8 C         139.1135  140.0655  168.8181 C.ar    1  UNL1        0.0779
      9 N         140.2633  140.2913  167.8817 N.ar    1  UNL1       -0.3154
     10 C         141.2325  141.2188  168.5529 C.ar    1  UNL1        0.1322
     11 H         144.3805  144.3564  170.9809 H       1  UNL1        0.1452
     12 H         143.1571  144.2083  172.1596 H       1  UNL1        0.1452
     13 O         143.0963  141.4445  166.7570 O.3     1  UNL1       -0.4524
     14 C         142.9452  142.4060  165.6157 C.3     1  UNL1        0.2559
     15 C         140.4054  142.2391  160.9893 C.3     1  UNL1        0.0754
     16 C         141.2428  141.8512  162.1719 C.ar    1  UNL1        0.1546
     17 C         141.5389  142.7131  163.3633 C.ar    1  UNL1        0.0573
     18 C         142.4102  141.9280  164.2983 C.ar    1  UNL1        0.1440
     19 N         142.6526  140.5808  163.6848 N.ar    1  UNL1       -0.0780
     20 O         141.9311  140.5335  162.3706 O.2     1  UNL1       -0.3580
     21 C         140.4170  139.6945  166.5141 C.3     1  UNL1        0.1520
     22 C         139.5025  140.1188  165.4034 C.ar    1  UNL1        0.0818
     23 C         139.2089  139.1779  164.2729 C.ar    1  UNL1        0.0167
     24 C         138.2944  139.6022  163.1621 C.ar    1  UNL1        0.0029
     25 C         137.6736  140.9676  163.1821 C.ar    1  UNL1        0.0207
     26 C         137.9673  141.9085  164.3128 C.ar    1  UNL1        0.0985
     27 N         138.8817  141.4842  165.4234 N.ar    1  UNL1       -0.2462
@<TRIPOS>BOND
     1    15    16    1
     2    16    17   ar
     3    17    18   ar
     4    18    14    1
     5    14    13    1
     6    13     1    1
     7     1     2   ar
     8     2     3   ar
     9     3     4    1
    10     3     5   ar
    11     5     6   ar
    12     6     7   ar
    13     7     8   ar
    14     8     9   ar
    15     9    21    1
    16    21    22    1
    17    22    23   ar
    18    23    24   ar
    19    24    25   ar
    20    25    26   ar
    21    26    27   ar
    22     9    10   ar
    23    18    19   ar
    24    19    20   ar
    25    20    16   ar
    26    10     1   ar
    27    10     6   ar
    28    27    22   ar
    29     4    11    1
    30     4    12    1
@<TRIPOS>MOLECULE
*****
 27 30 0 0 0
SMALL
GASTEIGER

@<TRIPOS>ATOM
      1 C         139.1969  139.9691  165.3973 C.ar    1  UNL1        0.2454
      2 N         138.1887  138.9123  165.7388 N.ar    1  UNL1       -0.1778
      3 C         137.8768  138.6093  167.1743 C.ar    1  UNL1        0.2163
      4 N         136.8685  137.5524  167.5158 N.pl3   1  UNL1       -0.3274
      5 N         138.5731  139.3631  168.2684 N.ar    1  UNL1       -0.2123
      6 C         139.5813  140.4199  167.9269 C.ar    1  UNL1        0.1060
      7 C         140.4208  141.3204  168.7838 C.ar    1  UNL1        0.0395
      8 C         141.2516  142.1800  167.8777 C.ar    1  UNL1        0.0779
      9 N         140.9256  141.8107  166.4609 N.ar    1  UNL1       -0.3154
     10 C         139.8932  140.7229  166.4913 C.ar    1  UNL1        0.1322
     11 H         136.4115  137.0577  166.7977 H       1  UNL1        0.1452
     12 H         136.6638  137.3535  168.4580 H       1  UNL1        0.1452
     13 O         139.5089  140.2721  163.9617 O.3     1  UNL1       -0.4524
     14 C         138.5842  141.1397  163.1602 C.3     1  UNL1        0.2559
     15 C         139.7353  146.1310  161.8785 C.3     1  UNL1        0.0754
     16 C         139.2477  144.9267  162.6284 C.ar    1  UNL1        0.1546
     17 C         139.3190  143.5051  162.1553 C.ar    1  UNL1        0.0573
     18 C         138.7187  142.6326  163.2174 C.ar    1  UNL1        0.1440
     19 N         138.2765  143.5149  164.3470 N.ar    1  UNL1       -0.0780
     20 O         138.6035  144.9328  163.9828 O.2     1  UNL1       -0.3580
     21 C         141.5264  142.4220  165.2299 C.3     1  UNL1        0.1520
     22 C         142.8178  141.8906  164.6825 C.ar    1  UNL1        0.0818
     23 C         144.0496  142.7462  164.7031 C.ar    1  UNL1        0.0167
     24 C         145.3412  142.2149  164.1556 C.ar    1  UNL1        0.0029
     25 C         145.4007  140.8278  163.5875 C.ar    1  UNL1        0.0207
     26 C         144.1688  139.9722  163.5670 C.ar    1  UNL1        0.0985
     27 N         142.8774  140.5036  164.1144 N.ar    1  UNL1       -0.2462
@<TRIPOS>BOND
     1    15    16    1
     2    16    17   ar
     3    17    18   ar
     4    18    14    1
     5    14    13    1
     6    13     1    1
     7     1     2   ar
     8     2     3   ar
     9     3     4    1
    10     3     5   ar
    11     5     6   ar
    12     6     7   ar
    13     7     8   ar
    14     8     9   ar
    15     9    21    1
    16    21    22    1
    17    22    23   ar
    18    23    24   ar
    19    24    25   ar
    20    25    26   ar
    21    26    27   ar
    22     9    10   ar
    23    18    19   ar
    24    19    20   ar
    25    20    16   ar
    26    10     1   ar
    27    10     6   ar
    28    27    22   ar
    29     4    11    1
    30     4    12    1
@<TRIPOS>MOLECULE
*****
 27 30 0 0 0
SMALL
GASTEIGER

@<TRIPOS>ATOM
      1 C         141.2920  138.8569  163.7442 C.ar    1  UNL1        0.2454
      2 N         142.5162  138.2398  163.1354 N.ar    1  UNL1       -0.1778
      3 C         142.4936  137.7803  161.7078 C.ar    1  UNL1        0.2163
      4 N         143.7179  137.1632  161.0991 N.pl3   1  UNL1       -0.3274
      5 N         141.2468  137.9377  160.8888 N.ar    1  UNL1       -0.2123
      6 C         140.0226  138.5548  161.4975 C.ar    1  UNL1        0.1060
      7 C         138.6588  138.8381  160.9409 C.ar    1  UNL1        0.0395
      8 C         137.8385  139.4727  162.0245 C.ar    1  UNL1        0.0779
      9 N         138.6953  139.5817  163.2509 N.ar    1  UNL1       -0.3154
     10 C         140.0452  139.0144  162.9252 C.ar    1  UNL1        0.1322
     11 H         144.5362  137.0598  161.6366 H       1  UNL1        0.1452
     12 H         143.7030  136.8615  160.1620 H       1  UNL1        0.1452
     13 O         141.3146  139.3164  165.1719 O.3     1  UNL1       -0.4524
     14 C         142.3901  138.8324  166.0987 C.3     1  UNL1        0.2559
     15 C         142.9661  142.6569  169.6934 C.3     1  UNL1        0.0754
     16 C         142.9075  141.3054  169.0451 C.ar    1  UNL1        0.1546
     17 C         142.5904  141.0315  167.6048 C.ar    1  UNL1        0.0573
     18 C         142.6428  139.5476  167.3927 C.ar    1  UNL1        0.1440
     19 N         142.9922  138.9043  168.7020 N.ar    1  UNL1       -0.0780
     20 O         143.1558  139.9908  169.7231 O.2     1  UNL1       -0.3580
     21 C         138.2759  140.1569  164.5712 C.3     1  UNL1        0.1520
     22 C         138.5068  141.6100  164.8636 C.ar    1  UNL1        0.0818
     23 C         137.5875  142.6460  164.2880 C.ar    1  UNL1        0.0167
     24 C         137.8183  144.0990  164.5803 C.ar    1  UNL1        0.0029
     25 C         138.9685  144.5159  165.4483 C.ar    1  UNL1        0.0207
     26 C         139.8878  143.4798  166.0239 C.ar    1  UNL1        0.0985
     27 N         139.6569  142.0268  165.7315 N.ar    1  UNL1       -0.2462
@<TRIPOS>BOND
     1    15    16    1
     2    16    17   ar
     3    17    18   ar
     4    18    14    1
     5    14    13    1
     6    13     1    1
     7     1     2   ar
     8     2     3   ar
     9     3     4    1
    10     3     5   ar
    11     5     6   ar
    12     6     7   ar
    13     7     8   ar
    14     8     9   ar
    15     9    21    1
    16    21    22    1
    17    22    23   ar
    18    23    24   ar
    19    24    25   ar
    20    25    26   ar
    21    26    27   ar
    22     9    10   ar
    23    18    19   ar
    24    19    20   ar
    25    20    16   ar
    26    10     1   ar
    27    10     6   ar
    28    27    22   ar
    29     4    11    1
    30     4    12    1
@<TRIPOS>MOLECULE
*****
 27 30 0 0 0
SMALL
GASTEIGER

@<TRIPOS>ATOM
      1 C         142.1356  139.9596  163.4779 C.ar    1  UNL1        0.2454
      2 N         143.0089  139.2963  162.4546 N.ar    1  UNL1       -0.1778
      3 C         142.6460  137.9411  161.9240 C.ar    1  UNL1        0.2163
      4 N         143.5194  137.2777  160.9006 N.pl3   1  UNL1       -0.3274
      5 N         141.4096  137.2491  162.4167 N.ar    1  UNL1       -0.2123
      6 C         140.5363  137.9125  163.4401 C.ar    1  UNL1        0.1060
      7 C         139.2657  137.4779  164.1085 C.ar    1  UNL1        0.0395
      8 C         138.8435  138.5647  165.0523 C.ar    1  UNL1        0.0779
      9 N         139.8530  139.6708  164.9671 N.ar    1  UNL1       -0.3154
     10 C         140.8993  139.2677  163.9707 C.ar    1  UNL1        0.1322
     11 H         144.3308  137.7319  160.5772 H       1  UNL1        0.1452
     12 H         143.2811  136.3882  160.5523 H       1  UNL1        0.1452
     13 O         142.4985  141.3149  164.0085 O.3     1  UNL1       -0.4524
     14 C         143.3447  142.2405  163.1857 C.3     1  UNL1        0.2559
     15 C         140.0181  145.8835  161.3031 C.3     1  UNL1        0.0754
     16 C         141.1662  144.9253  161.4218 C.ar    1  UNL1        0.1546
     17 C         141.4566  144.0384  162.5961 C.ar    1  UNL1        0.0573
     18 C         142.6952  143.2509  162.2871 C.ar    1  UNL1        0.1440
     19 N         143.1702  143.6509  160.9217 N.ar    1  UNL1       -0.0780
     20 O         142.2252  144.6857  160.3870 O.2     1  UNL1       -0.3580
     21 C         139.8218  140.9546  165.7423 C.3     1  UNL1        0.1520
     22 C         139.2098  142.1824  165.1355 C.ar    1  UNL1        0.0818
     23 C         139.4750  143.5294  165.7398 C.ar    1  UNL1        0.0167
     24 C         138.8631  144.7572  165.1331 C.ar    1  UNL1        0.0029
     25 C         137.9858  144.6378  163.9222 C.ar    1  UNL1        0.0207
     26 C         137.7207  143.2908  163.3180 C.ar    1  UNL1        0.0985
     27 N         138.3326  142.0631  163.9247 N.ar    1  UNL1       -0.2462
@<TRIPOS>BOND
     1    15    16    1
     2    16    17   ar
     3    17    18   ar
     4    18    14    1
     5    14    13    1
     6    13     1    1
     7     1     2   ar
     8     2     3   ar
     9     3     4    1
    10     3     5   ar
    11     5     6   ar
    12     6     7   ar
    13     7     8   ar
    14     8     9   ar
    15     9    21    1
    16    21    22    1
    17    22    23   ar
    18    23    24   ar
    19    24    25   ar
    20    25    26   ar
    21    26    27   ar
    22     9    10   ar
    23    18    19   ar
    24    19    20   ar
    25    20    16   ar
    26    10     1   ar
    27    10     6   ar
    28    27    22   ar
    29     4    11    1
    30     4    12    1
@<TRIPOS>MOLECULE
*****
 27 30 0 0 0
SMALL
GASTEIGER

@<TRIPOS>ATOM
      1 C         140.6126  143.3051  164.0414 C.ar    1  UNL1        0.2454
      2 N         140.5672  144.2860  162.9075 N.ar    1  UNL1       -0.1778
      3 C         141.7160  144.3760  161.9473 C.ar    1  UNL1        0.2163
      4 N         141.6706  145.3569  160.8133 N.pl3   1  UNL1       -0.3274
      5 N         142.9103  143.4851  162.1209 N.ar    1  UNL1       -0.2123
      6 C         142.9557  142.5042  163.2548 C.ar    1  UNL1        0.1060
      7 C         143.9914  141.5043  163.6761 C.ar    1  UNL1        0.0395
      8 C         143.4826  140.7963  164.8967 C.ar    1  UNL1        0.0779
      9 N         142.1325  141.3587  165.2298 N.ar    1  UNL1       -0.3154
     10 C         141.8068  142.4142  164.2151 C.ar    1  UNL1        0.1322
     11 H         140.8868  145.9416  160.6993 H       1  UNL1        0.1452
     12 H         142.4246  145.4160  160.1830 H       1  UNL1        0.1452
     13 O         139.4638  143.2151  165.0016 O.3     1  UNL1       -0.4524
     14 C         138.0882  142.8932  164.4974 C.3     1  UNL1        0.2559
     15 C         137.7737  138.4215  161.7070 C.3     1  UNL1        0.0754
     16 C         137.7679  139.8750  162.0782 C.ar    1  UNL1        0.1546
     17 C         138.0129  140.4362  163.4474 C.ar    1  UNL1        0.0573
     18 C         137.9124  141.9303  163.3608 C.ar    1  UNL1        0.1440
     19 N         137.6053  142.2924  161.9379 N.ar    1  UNL1       -0.0780
     20 O         137.5159  141.0221  161.1453 O.2     1  UNL1       -0.3580
     21 C         141.2611  140.9391  166.3764 C.3     1  UNL1        0.1520
     22 C         140.2786  139.8193  166.2011 C.ar    1  UNL1        0.0818
     23 C         140.5733  138.7068  165.2392 C.ar    1  UNL1        0.0167
     24 C         139.5909  137.5869  165.0638 C.ar    1  UNL1        0.0029
     25 C         138.3137  137.5797  165.8506 C.ar    1  UNL1        0.0207
     26 C         138.0190  138.6922  166.8125 C.ar    1  UNL1        0.0985
     27 N         139.0015  139.8120  166.9878 N.ar    1  UNL1       -0.2462
@<TRIPOS>BOND
     1    15    16    1
     2    16    17   ar
     3    17    18   ar
     4    18    14    1
     5    14    13    1
     6    13     1    1
     7     1     2   ar
     8     2     3   ar
     9     3     4    1
    10     3     5   ar
    11     5     6   ar
    12     6     7   ar
    13     7     8   ar
    14     8     9   ar
    15     9    21    1
    16    21    22    1
    17    22    23   ar
    18    23    24   ar
    19    24    25   ar
    20    25    26   ar
    21    26    27   ar
    22     9    10   ar
    23    18    19   ar
    24    19    20   ar
    25    20    16   ar
    26    10     1   ar
    27    10     6   ar
    28    27    22   ar
    29     4    11    1
    30     4    12    1
