@<TRIPOS>MOLECULE
*****
 38 43 0 0 0
SMALL
GASTEIGER

@<TRIPOS>ATOM
      1 C         142.2839  137.8065  159.1312 C.ar    1  UNL1        0.1473
      2 C         142.8896  137.6378  160.4930 C.ar    1  UNL1        0.0390
      3 C         142.1357  138.0859  161.7099 C.ar    1  UNL1        0.0208
      4 C         140.7761  138.7025  161.5649 C.ar    1  UNL1        0.0683
      5 C         140.1703  138.8712  160.2031 C.ar    1  UNL1        0.0208
      6 C         138.8226  139.5080  160.3708 C.ar    1  UNL1        0.0207
      7 C         138.5953  139.7329  161.8364 C.ar    1  UNL1        0.0842
      8 N         139.8027  139.2351  162.5743 N.ar    1  UNL1       -0.2609
      9 C         140.0017  139.2646  164.0608 C.2     1  UNL1        0.3249
     10 O         141.2683  138.7279  164.6587 O.2     1  UNL1       -0.2488
     11 N         138.9339  139.8309  164.9494 N.am    1  UNL1       -0.2484
     12 C         140.9243  138.4232  158.9862 C.ar    1  UNL1        0.0390
     13 H         138.1026  140.1831  164.5569 H       1  UNL1        0.1581
     14 C         139.1329  139.8604  166.4358 C.ar    1  UNL1        0.1773
     15 C         140.1716  140.6548  167.1706 C.ar    1  UNL1        0.0737
     16 C         140.0089  140.3861  168.6374 C.ar    1  UNL1        0.1629
     17 O         138.8696  139.4257  168.8090 O.2     1  UNL1       -0.3563
     18 N         138.3282  139.1007  167.4483 N.ar    1  UNL1       -0.0620
     19 C         140.8395  140.9746  169.7390 C.3     1  UNL1        0.1409
     20 C         141.7992  141.0607  170.8886 C.3     1  UNL1        0.0162
     21 C         141.4996  139.7322  170.2596 C.3     1  UNL1        0.0162
     22 C         140.4680  142.4213  169.6011 C.3     1  UNL1        0.4035
     23 F         140.0964  143.8680  169.4631 F       1  UNL1       -0.1696
     24 F         139.1381  142.1402  170.2355 F       1  UNL1       -0.1696
     25 F         141.7978  142.7024  168.9667 F       1  UNL1       -0.1696
     26 O         143.0379  137.3584  157.9142 O.3     1  UNL1       -0.4363
     27 C         145.1572  132.3846  158.0527 C.3     1  UNL1        0.0175
     28 C         144.1014  133.0423  157.2145 C.3     1  UNL1        0.0589
     29 C         143.7469  134.4810  157.4477 C.3     1  UNL1        0.0481
     30 C         142.6910  135.1387  156.6095 C.ar    1  UNL1        0.0476
     31 C         141.9897  134.3577  155.5380 C.ar    1  UNL1        0.0772
     32 N         140.9338  135.0153  154.6998 N.ar    1  UNL1       -0.2271
     33 C         140.5793  136.4540  154.9330 C.ar    1  UNL1        0.2012
     34 N         141.2807  137.2351  156.0045 N.ar    1  UNL1       -0.1893
     35 C         142.3365  136.5774  156.8428 C.ar    1  UNL1        0.2282
     36 C         142.3442  132.9190  155.3048 C.3     1  UNL1        0.1150
     37 N         143.4000  132.2613  156.1430 N.3     1  UNL1       -0.2933
     38 H         144.1202  131.9287  155.5018 H       1  UNL1        0.1236
@<TRIPOS>BOND
     1    28    27    1
     2    28    29    1
     3    29    30    1
     4    30    31   ar
     5    31    32   ar
     6    32    33   ar
     7    33    34   ar
     8    34    35   ar
     9    35    26    1
    10    26     1    1
    11     1     2   ar
    12     2     3   ar
    13     3     4   ar
    14     4     5   ar
    15     5     6   ar
    16     6     7   ar
    17     7     8   ar
    18     8     9   am
    19     9    10    2
    20     9    11   am
    21    11    14    1
    22    14    15   ar
    23    15    16   ar
    24    16    19    1
    25    19    22    1
    26    22    23    1
    27    22    24    1
    28    22    25    1
    29    19    20    1
    30    20    21    1
    31    16    17   ar
    32    17    18   ar
    33     5    12   ar
    34    31    36    1
    35    36    37    1
    36    37    28    1
    37    35    30   ar
    38    12     1   ar
    39     8     4   ar
    40    18    14   ar
    41    21    19    1
    42    11    13    1
    43    37    38    1
@<TRIPOS>MOLECULE
*****
 38 43 0 0 0
SMALL
GASTEIGER

@<TRIPOS>ATOM
      1 C         142.8979  138.4381  159.2484 C.ar    1  UNL1        0.1473
      2 C         143.8843  138.9893  160.2349 C.ar    1  UNL1        0.0390
      3 C         143.4891  139.1675  161.6709 C.ar    1  UNL1        0.0208
      4 C         142.1075  138.7946  162.1203 C.ar    1  UNL1        0.0683
      5 C         141.1211  138.2434  161.1337 C.ar    1  UNL1        0.0208
      6 C         139.8406  137.9663  161.8642 C.ar    1  UNL1        0.0207
      7 C         140.0356  138.3461  163.3021 C.ar    1  UNL1        0.0842
      8 N         141.4366  138.8580  163.4604 N.ar    1  UNL1       -0.2609
      9 C         142.0577  139.3475  164.7350 C.2     1  UNL1        0.3249
     10 O         143.4772  139.8322  164.7398 O.2     1  UNL1       -0.2488
     11 N         141.2593  139.3521  166.0050 N.am    1  UNL1       -0.2484
     12 C         141.5163  138.0652  159.6978 C.ar    1  UNL1        0.0390
     13 H         140.3276  139.0339  166.0018 H       1  UNL1        0.1581
     14 C         141.8804  139.8416  167.2796 C.ar    1  UNL1        0.1773
     15 C         141.7083  141.2068  167.8768 C.ar    1  UNL1        0.0737
     16 C         142.5042  141.2607  169.1470 C.ar    1  UNL1        0.1629
     17 O         143.1682  139.9289  169.3349 O.2     1  UNL1       -0.3563
     18 N         142.7827  139.0518  168.1807 N.ar    1  UNL1       -0.0620
     19 C         142.6164  142.4395  170.0678 C.3     1  UNL1        0.1409
     20 C         143.2289  143.5589  170.8564 C.3     1  UNL1        0.0162
     21 C         144.0961  142.6778  170.0068 C.3     1  UNL1        0.0162
     22 C         141.1756  142.6106  170.4486 C.3     1  UNL1        0.4035
     23 F         139.7349  142.7818  170.8293 F       1  UNL1       -0.1696
     24 F         141.2210  141.3147  171.2026 F       1  UNL1       -0.1696
     25 F         141.1303  143.9065  169.6945 F       1  UNL1       -0.1696
     26 O         143.2932  138.2599  157.8124 O.3     1  UNL1       -0.4363
     27 C         144.4432  132.9761  157.7174 C.3     1  UNL1        0.0175
     28 C         143.4345  133.8338  157.0125 C.3     1  UNL1        0.0589
     29 C         143.3874  135.3091  157.2791 C.3     1  UNL1        0.0481
     30 C         142.3786  136.1668  156.5742 C.ar    1  UNL1        0.0476
     31 C         141.4170  135.5492  155.6028 C.ar    1  UNL1        0.0772
     32 N         140.4083  136.4069  154.8979 N.ar    1  UNL1       -0.2271
     33 C         140.3612  137.8823  155.1645 C.ar    1  UNL1        0.2012
     34 N         141.3229  138.5000  156.1360 N.ar    1  UNL1       -0.1893
     35 C         142.3316  137.6422  156.8409 C.ar    1  UNL1        0.2282
     36 C         141.4642  134.0739  155.3362 C.3     1  UNL1        0.1150
     37 N         142.4729  133.2162  156.0410 N.3     1  UNL1       -0.2933
     38 H         143.0336  132.7661  155.3175 H       1  UNL1        0.1236
@<TRIPOS>BOND
     1    28    27    1
     2    28    29    1
     3    29    30    1
     4    30    31   ar
     5    31    32   ar
     6    32    33   ar
     7    33    34   ar
     8    34    35   ar
     9    35    26    1
    10    26     1    1
    11     1     2   ar
    12     2     3   ar
    13     3     4   ar
    14     4     5   ar
    15     5     6   ar
    16     6     7   ar
    17     7     8   ar
    18     8     9   am
    19     9    10    2
    20     9    11   am
    21    11    14    1
    22    14    15   ar
    23    15    16   ar
    24    16    19    1
    25    19    22    1
    26    22    23    1
    27    22    24    1
    28    22    25    1
    29    19    20    1
    30    20    21    1
    31    16    17   ar
    32    17    18   ar
    33     5    12   ar
    34    31    36    1
    35    36    37    1
    36    37    28    1
    37    35    30   ar
    38    12     1   ar
    39     8     4   ar
    40    18    14   ar
    41    21    19    1
    42    11    13    1
    43    37    38    1
@<TRIPOS>MOLECULE
*****
 38 43 0 0 0
SMALL
GASTEIGER

@<TRIPOS>ATOM
      1 C         142.4201  137.6495  158.3935 C.ar    1  UNL1        0.1473
      2 C         142.9606  137.5094  159.7857 C.ar    1  UNL1        0.0390
      3 C         142.1452  137.9716  160.9569 C.ar    1  UNL1        0.0208
      4 C         140.7894  138.5740  160.7357 C.ar    1  UNL1        0.0683
      5 C         140.2490  138.7141  159.3435 C.ar    1  UNL1        0.0208
      6 C         138.8898  139.3420  159.4350 C.ar    1  UNL1        0.0207
      7 C         138.5902  139.5899  160.8837 C.ar    1  UNL1        0.0842
      8 N         139.7642  139.1152  161.6876 N.ar    1  UNL1       -0.2609
      9 C         139.8909  139.1719  163.1812 C.2     1  UNL1        0.3249
     10 O         141.1313  138.6564  163.8487 O.2     1  UNL1       -0.2488
     11 N         138.7770  139.7440  164.0072 N.am    1  UNL1       -0.2484
     12 C         141.0643  138.2519  158.1724 C.ar    1  UNL1        0.0390
     13 H         137.9629  140.0823  163.5690 H       1  UNL1        0.1581
     14 C         138.9037  139.8006  165.5008 C.ar    1  UNL1        0.1773
     15 C         139.6792  140.8198  166.2818 C.ar    1  UNL1        0.0737
     16 C         139.5319  140.4971  167.7392 C.ar    1  UNL1        0.1629
     17 O         138.6654  139.2785  167.8589 O.2     1  UNL1       -0.3563
     18 N         138.2772  138.8481  166.4755 N.ar    1  UNL1       -0.0620
     19 C         140.1436  141.2592  168.8772 C.3     1  UNL1        0.1409
     20 C         140.8685  142.3418  169.6205 C.3     1  UNL1        0.0162
     21 C         140.6818  142.4469  168.1358 C.3     1  UNL1        0.0162
     22 C         139.8179  140.3361  170.0138 C.3     1  UNL1        0.4035
     23 F         139.4922  139.4129  171.1503 F       1  UNL1       -0.1696
     24 F         138.5974  141.1504  170.3254 F       1  UNL1       -0.1696
     25 F         141.0384  139.5217  169.7021 F       1  UNL1       -0.1696
     26 O         143.2355  137.1873  157.2224 O.3     1  UNL1       -0.4363
     27 C         141.6192  137.5074  152.0712 C.3     1  UNL1        0.0175
     28 C         141.9327  136.3671  152.9939 C.3     1  UNL1        0.0589
     29 C         142.3670  136.6405  154.4034 C.3     1  UNL1        0.0481
     30 C         142.6805  135.5002  155.3261 C.ar    1  UNL1        0.0476
     31 C         142.5597  134.0866  154.8394 C.ar    1  UNL1        0.0772
     32 N         142.8733  132.9463  155.7621 N.ar    1  UNL1       -0.2271
     33 C         143.3075  133.2196  157.1716 C.ar    1  UNL1        0.2012
     34 N         143.4283  134.6333  157.6584 N.ar    1  UNL1       -0.1893
     35 C         143.1148  135.7736  156.7357 C.ar    1  UNL1        0.2282
     36 C         142.1255  133.8132  153.4299 C.3     1  UNL1        0.1150
     37 N         141.8119  134.9535  152.5072 N.3     1  UNL1       -0.2933
     38 H         140.8467  134.8285  152.2021 H       1  UNL1        0.1236
@<TRIPOS>BOND
     1    28    27    1
     2    28    29    1
     3    29    30    1
     4    30    31   ar
     5    31    32   ar
     6    32    33   ar
     7    33    34   ar
     8    34    35   ar
     9    35    26    1
    10    26     1    1
    11     1     2   ar
    12     2     3   ar
    13     3     4   ar
    14     4     5   ar
    15     5     6   ar
    16     6     7   ar
    17     7     8   ar
    18     8     9   am
    19     9    10    2
    20     9    11   am
    21    11    14    1
    22    14    15   ar
    23    15    16   ar
    24    16    19    1
    25    19    22    1
    26    22    23    1
    27    22    24    1
    28    22    25    1
    29    19    20    1
    30    20    21    1
    31    16    17   ar
    32    17    18   ar
    33     5    12   ar
    34    31    36    1
    35    36    37    1
    36    37    28    1
    37    35    30   ar
    38    12     1   ar
    39     8     4   ar
    40    18    14   ar
    41    21    19    1
    42    11    13    1
    43    37    38    1
@<TRIPOS>MOLECULE
*****
 38 43 0 0 0
SMALL
GASTEIGER

@<TRIPOS>ATOM
      1 C         138.3928  141.6137  159.2318 C.ar    1  UNL1        0.1473
      2 C         138.4613  142.5083  160.4339 C.ar    1  UNL1        0.0390
      3 C         138.6147  141.9146  161.8028 C.ar    1  UNL1        0.0208
      4 C         138.6994  140.4263  161.9696 C.ar    1  UNL1        0.0683
      5 C         138.6308  139.5318  160.7675 C.ar    1  UNL1        0.0208
      6 C         138.7403  138.1121  161.2394 C.ar    1  UNL1        0.0207
      7 C         138.8766  138.1293  162.7331 C.ar    1  UNL1        0.0842
      8 N         138.8513  139.5595  163.1844 N.ar    1  UNL1       -0.2609
      9 C         138.9590  140.0389  164.6017 C.2     1  UNL1        0.3249
     10 O         138.9180  141.5080  164.9017 O.2     1  UNL1       -0.2488
     11 N         139.1077  139.0490  165.7190 N.am    1  UNL1       -0.2484
     12 C         138.4775  140.1255  159.3986 C.ar    1  UNL1        0.0390
     13 H         139.1346  138.0848  165.5220 H       1  UNL1        0.1581
     14 C         139.2154  139.5284  167.1362 C.ar    1  UNL1        0.1773
     15 C         140.3045  140.3966  167.6929 C.ar    1  UNL1        0.0737
     16 C         140.0151  140.6285  169.1463 C.ar    1  UNL1        0.1629
     17 O         138.7471  139.9036  169.4879 O.2     1  UNL1       -0.3563
     18 N         138.2528  139.2237  168.2456 N.ar    1  UNL1       -0.0620
     19 C         140.8476  141.4424  170.0922 C.3     1  UNL1        0.1409
     20 C         141.8231  141.7765  171.1815 C.3     1  UNL1        0.0162
     21 C         141.5488  140.3433  170.8340 C.3     1  UNL1        0.0162
     22 C         140.4354  142.8242  169.6789 C.3     1  UNL1        0.4035
     23 F         140.0233  144.2060  169.2656 F       1  UNL1       -0.1696
     24 F         141.6874  142.9536  168.8629 F       1  UNL1       -0.1696
     25 F         139.1834  142.6949  170.4948 F       1  UNL1       -0.1696
     26 O         138.2394  142.2075  157.8628 O.3     1  UNL1       -0.4363
     27 C         133.3797  140.5738  156.1414 C.3     1  UNL1        0.0175
     28 C         134.7827  140.3503  155.6603 C.3     1  UNL1        0.0589
     29 C         135.9349  140.9693  156.3944 C.3     1  UNL1        0.0481
     30 C         137.3380  140.7458  155.9132 C.ar    1  UNL1        0.0476
     31 C         137.5888  139.9032  154.6979 C.ar    1  UNL1        0.0772
     32 N         138.9918  139.6797  154.2167 N.ar    1  UNL1       -0.2271
     33 C         140.1440  140.2988  154.9509 C.ar    1  UNL1        0.2012
     34 N         139.8933  141.1414  156.1663 N.ar    1  UNL1       -0.1893
     35 C         138.4902  141.3649  156.6475 C.ar    1  UNL1        0.2282
     36 C         136.4365  139.2842  153.9637 C.3     1  UNL1        0.1150
     37 N         135.0335  139.5077  154.4449 N.3     1  UNL1       -0.2933
     38 H         134.6383  138.5874  154.6380 H       1  UNL1        0.1236
@<TRIPOS>BOND
     1    28    27    1
     2    28    29    1
     3    29    30    1
     4    30    31   ar
     5    31    32   ar
     6    32    33   ar
     7    33    34   ar
     8    34    35   ar
     9    35    26    1
    10    26     1    1
    11     1     2   ar
    12     2     3   ar
    13     3     4   ar
    14     4     5   ar
    15     5     6   ar
    16     6     7   ar
    17     7     8   ar
    18     8     9   am
    19     9    10    2
    20     9    11   am
    21    11    14    1
    22    14    15   ar
    23    15    16   ar
    24    16    19    1
    25    19    22    1
    26    22    23    1
    27    22    24    1
    28    22    25    1
    29    19    20    1
    30    20    21    1
    31    16    17   ar
    32    17    18   ar
    33     5    12   ar
    34    31    36    1
    35    36    37    1
    36    37    28    1
    37    35    30   ar
    38    12     1   ar
    39     8     4   ar
    40    18    14   ar
    41    21    19    1
    42    11    13    1
    43    37    38    1
@<TRIPOS>MOLECULE
*****
 38 43 0 0 0
SMALL
GASTEIGER

@<TRIPOS>ATOM
      1 C         143.7664  142.1020  162.5967 C.ar    1  UNL1        0.1473
      2 C         143.2233  140.7043  162.6354 C.ar    1  UNL1        0.0390
      3 C         143.1449  139.8949  161.3750 C.ar    1  UNL1        0.0208
      4 C         143.6097  140.4832  160.0759 C.ar    1  UNL1        0.0683
      5 C         144.1528  141.8809  160.0371 C.ar    1  UNL1        0.0208
      6 C         144.5328  142.1914  158.6197 C.ar    1  UNL1        0.0207
      7 C         144.2245  140.9857  157.7823 C.ar    1  UNL1        0.0842
      8 N         143.6540  139.9300  158.6823 N.ar    1  UNL1       -0.2609
      9 C         143.2064  138.5613  158.2625 C.2     1  UNL1        0.3249
     10 O         142.6535  137.6080  159.2801 O.2     1  UNL1       -0.2488
     11 N         143.3117  138.1458  156.8249 N.am    1  UNL1       -0.2484
     12 C         144.2312  142.6903  161.2976 C.ar    1  UNL1        0.0390
     13 H         143.6746  138.7715  156.1570 H       1  UNL1        0.1581
     14 C         142.8641  136.7771  156.4051 C.ar    1  UNL1        0.1773
     15 C         143.7398  135.5673  156.2656 C.ar    1  UNL1        0.0737
     16 C         142.8791  134.4203  155.8254 C.ar    1  UNL1        0.1629
     17 O         141.4715  134.9214  155.6928 O.2     1  UNL1       -0.3563
     18 N         141.4622  136.3779  156.0510 N.ar    1  UNL1       -0.0620
     19 C         143.3443  133.0185  155.5637 C.3     1  UNL1        0.1409
     20 C         143.5628  131.7153  154.8540 C.3     1  UNL1        0.0162
     21 C         142.7953  132.8154  154.1826 C.3     1  UNL1        0.0162
     22 C         144.0550  132.7349  156.8539 C.3     1  UNL1        0.4035
     23 F         144.7656  132.4512  158.1440 F       1  UNL1       -0.1696
     24 F         142.8125  133.0889  157.6160 F       1  UNL1       -0.1696
     25 F         145.2974  132.3809  156.0917 F       1  UNL1       -0.1696
     26 O         143.8448  142.9113  163.8573 O.3     1  UNL1       -0.4363
     27 C         139.8981  146.0356  161.8793 C.3     1  UNL1        0.0175
     28 C         140.0470  145.2109  163.1233 C.3     1  UNL1        0.0589
     29 C         141.3129  144.4444  163.3680 C.3     1  UNL1        0.0481
     30 C         141.4618  143.6196  164.6120 C.ar    1  UNL1        0.0476
     31 C         140.3447  143.5613  165.6114 C.ar    1  UNL1        0.0772
     32 N         140.4936  142.7365  166.8554 N.ar    1  UNL1       -0.2271
     33 C         141.7595  141.9700  167.1000 C.ar    1  UNL1        0.2012
     34 N         142.8766  142.0283  166.1006 N.ar    1  UNL1       -0.1893
     35 C         142.7278  142.8530  164.8566 C.ar    1  UNL1        0.2282
     36 C         139.0788  144.3278  165.3667 C.3     1  UNL1        0.1150
     37 N         138.9300  145.1526  164.1227 N.3     1  UNL1       -0.2933
     38 H         138.7543  146.1111  164.4241 H       1  UNL1        0.1236
@<TRIPOS>BOND
     1    28    27    1
     2    28    29    1
     3    29    30    1
     4    30    31   ar
     5    31    32   ar
     6    32    33   ar
     7    33    34   ar
     8    34    35   ar
     9    35    26    1
    10    26     1    1
    11     1     2   ar
    12     2     3   ar
    13     3     4   ar
    14     4     5   ar
    15     5     6   ar
    16     6     7   ar
    17     7     8   ar
    18     8     9   am
    19     9    10    2
    20     9    11   am
    21    11    14    1
    22    14    15   ar
    23    15    16   ar
    24    16    19    1
    25    19    22    1
    26    22    23    1
    27    22    24    1
    28    22    25    1
    29    19    20    1
    30    20    21    1
    31    16    17   ar
    32    17    18   ar
    33     5    12   ar
    34    31    36    1
    35    36    37    1
    36    37    28    1
    37    35    30   ar
    38    12     1   ar
    39     8     4   ar
    40    18    14   ar
    41    21    19    1
    42    11    13    1
    43    37    38    1
@<TRIPOS>MOLECULE
*****
 38 43 0 0 0
SMALL
GASTEIGER

@<TRIPOS>ATOM
      1 C         139.6313  140.7558  165.2100 C.ar    1  UNL1        0.1473
      2 C         140.4434  140.4943  163.9763 C.ar    1  UNL1        0.0390
      3 C         140.4929  141.5172  162.8802 C.ar    1  UNL1        0.0208
      4 C         139.7303  142.8015  163.0179 C.ar    1  UNL1        0.0683
      5 C         138.9183  143.0630  164.2517 C.ar    1  UNL1        0.0208
      6 C         138.2758  144.4106  164.1067 C.ar    1  UNL1        0.0207
      7 C         138.6908  144.9821  162.7834 C.ar    1  UNL1        0.0842
      8 N         139.5897  143.9875  162.1105 N.ar    1  UNL1       -0.2609
      9 C         140.2349  144.1504  160.7661 C.2     1  UNL1        0.3249
     10 O         141.1138  143.0648  160.2195 O.2     1  UNL1       -0.2488
     11 N         140.0010  145.3991  159.9684 N.am    1  UNL1       -0.2484
     12 C         138.8688  142.0401  165.3477 C.ar    1  UNL1        0.0390
     13 H         139.4241  146.1116  160.3271 H       1  UNL1        0.1581
     14 C         140.6461  145.5620  158.6240 C.ar    1  UNL1        0.1773
     15 C         139.9434  145.5296  157.2992 C.ar    1  UNL1        0.0737
     16 C         140.9702  145.7335  156.2248 C.ar    1  UNL1        0.1629
     17 O         142.3074  145.8919  156.8857 O.2     1  UNL1       -0.3563
     18 N         142.1071  145.7859  158.3685 N.ar    1  UNL1       -0.0620
     19 C         140.7061  145.7722  154.7487 C.3     1  UNL1        0.1409
     20 C         140.9464  145.6810  153.2710 C.3     1  UNL1        0.0162
     21 C         142.0670  145.4116  154.2311 C.3     1  UNL1        0.0162
     22 C         139.2535  146.1462  154.7538 C.3     1  UNL1        0.4035
     23 F         137.8009  146.5202  154.7588 F       1  UNL1       -0.1696
     24 F         138.8836  144.7130  154.5105 F       1  UNL1       -0.1696
     25 F         139.6233  147.5794  154.9971 F       1  UNL1       -0.1696
     26 O         139.5818  139.7329  166.3061 O.3     1  UNL1       -0.4363
     27 C         144.0649  142.7471  166.0470 C.3     1  UNL1        0.0175
     28 C         143.1814  142.2915  167.1703 C.3     1  UNL1        0.0589
     29 C         141.9816  141.4386  166.8823 C.3     1  UNL1        0.0481
     30 C         141.0981  140.9830  168.0056 C.ar    1  UNL1        0.0476
     31 C         141.4145  141.3802  169.4170 C.ar    1  UNL1        0.0772
     32 N         140.5310  140.9246  170.5404 N.ar    1  UNL1       -0.2271
     33 C         139.3311  140.0718  170.2523 C.ar    1  UNL1        0.2012
     34 N         139.0147  139.6745  168.8408 N.ar    1  UNL1       -0.1893
     35 C         139.8982  140.1301  167.7175 C.ar    1  UNL1        0.2282
     36 C         142.6143  142.2331  169.7051 C.3     1  UNL1        0.1150
     37 N         143.4978  142.6887  168.5817 N.3     1  UNL1       -0.2933
     38 H         144.4344  142.3386  168.7832 H       1  UNL1        0.1236
@<TRIPOS>BOND
     1    28    27    1
     2    28    29    1
     3    29    30    1
     4    30    31   ar
     5    31    32   ar
     6    32    33   ar
     7    33    34   ar
     8    34    35   ar
     9    35    26    1
    10    26     1    1
    11     1     2   ar
    12     2     3   ar
    13     3     4   ar
    14     4     5   ar
    15     5     6   ar
    16     6     7   ar
    17     7     8   ar
    18     8     9   am
    19     9    10    2
    20     9    11   am
    21    11    14    1
    22    14    15   ar
    23    15    16   ar
    24    16    19    1
    25    19    22    1
    26    22    23    1
    27    22    24    1
    28    22    25    1
    29    19    20    1
    30    20    21    1
    31    16    17   ar
    32    17    18   ar
    33     5    12   ar
    34    31    36    1
    35    36    37    1
    36    37    28    1
    37    35    30   ar
    38    12     1   ar
    39     8     4   ar
    40    18    14   ar
    41    21    19    1
    42    11    13    1
    43    37    38    1
@<TRIPOS>MOLECULE
*****
 38 43 0 0 0
SMALL
GASTEIGER

@<TRIPOS>ATOM
      1 C         141.4344  141.6752  164.2835 C.ar    1  UNL1        0.1473
      2 C         142.2985  140.4876  163.9787 C.ar    1  UNL1        0.0390
      3 C         142.3856  139.9638  162.5758 C.ar    1  UNL1        0.0208
      4 C         141.6086  140.6275  161.4779 C.ar    1  UNL1        0.0683
      5 C         140.7445  141.8151  161.7827 C.ar    1  UNL1        0.0208
      6 C         140.0986  142.2590  160.5037 C.ar    1  UNL1        0.0207
      7 C         140.5635  141.3457  159.4084 C.ar    1  UNL1        0.0842
      8 N         141.4967  140.3374  160.0104 N.ar    1  UNL1       -0.2609
      9 C         142.1954  139.2329  159.2743 C.2     1  UNL1        0.3249
     10 O         143.1041  138.2963  160.0139 O.2     1  UNL1       -0.2488
     11 N         141.9854  139.0650  157.7985 N.am    1  UNL1       -0.2484
     12 C         140.6574  142.3390  163.1856 C.ar    1  UNL1        0.0390
     13 H         141.3890  139.6798  157.3131 H       1  UNL1        0.1581
     14 C         142.6842  137.9605  157.0624 C.ar    1  UNL1        0.1773
     15 C         142.1596  136.5709  156.8531 C.ar    1  UNL1        0.0737
     16 C         143.1813  135.8032  156.0677 C.ar    1  UNL1        0.1629
     17 O         144.3373  136.7184  155.7917 O.2     1  UNL1       -0.3563
     18 N         144.0300  138.0517  156.4065 N.ar    1  UNL1       -0.0620
     19 C         143.0672  134.3717  155.6345 C.3     1  UNL1        0.1409
     20 C         143.3494  132.9018  155.5368 C.3     1  UNL1        0.0162
     21 C         144.1692  133.7638  156.4506 C.3     1  UNL1        0.0162
     22 C         141.9255  134.4824  154.6679 C.3     1  UNL1        0.4035
     23 F         140.7838  134.5932  153.7013 F       1  UNL1       -0.1696
     24 F         141.0671  133.6662  155.5882 F       1  UNL1       -0.1696
     25 F         142.7838  135.2987  153.7476 F       1  UNL1       -0.1696
     26 O         141.3473  142.1990  165.6865 O.3     1  UNL1       -0.4363
     27 C         144.5503  142.8120  170.0010 C.3     1  UNL1        0.0175
     28 C         143.3044  142.0202  169.7346 C.3     1  UNL1        0.0589
     29 C         142.6521  142.0798  168.3853 C.3     1  UNL1        0.0481
     30 C         141.4062  141.2880  168.1189 C.ar    1  UNL1        0.0476
     31 C         140.8128  140.4366  169.2019 C.ar    1  UNL1        0.0772
     32 N         139.5670  139.6448  168.9355 N.ar    1  UNL1       -0.2271
     33 C         138.9146  139.7044  167.5861 C.ar    1  UNL1        0.2012
     34 N         139.5080  140.5558  166.5031 N.ar    1  UNL1       -0.1893
     35 C         140.7539  141.3476  166.7694 C.ar    1  UNL1        0.2282
     36 C         141.4651  140.3770  170.5512 C.3     1  UNL1        0.1150
     37 N         142.7110  141.1688  170.8176 N.3     1  UNL1       -0.2933
     38 H         143.4305  140.5011  171.0949 H       1  UNL1        0.1236
@<TRIPOS>BOND
     1    28    27    1
     2    28    29    1
     3    29    30    1
     4    30    31   ar
     5    31    32   ar
     6    32    33   ar
     7    33    34   ar
     8    34    35   ar
     9    35    26    1
    10    26     1    1
    11     1     2   ar
    12     2     3   ar
    13     3     4   ar
    14     4     5   ar
    15     5     6   ar
    16     6     7   ar
    17     7     8   ar
    18     8     9   am
    19     9    10    2
    20     9    11   am
    21    11    14    1
    22    14    15   ar
    23    15    16   ar
    24    16    19    1
    25    19    22    1
    26    22    23    1
    27    22    24    1
    28    22    25    1
    29    19    20    1
    30    20    21    1
    31    16    17   ar
    32    17    18   ar
    33     5    12   ar
    34    31    36    1
    35    36    37    1
    36    37    28    1
    37    35    30   ar
    38    12     1   ar
    39     8     4   ar
    40    18    14   ar
    41    21    19    1
    42    11    13    1
    43    37    38    1
@<TRIPOS>MOLECULE
*****
 38 43 0 0 0
SMALL
GASTEIGER

@<TRIPOS>ATOM
      1 C         142.4748  138.3226  158.7003 C.ar    1  UNL1        0.1473
      2 C         143.2953  138.8323  159.8480 C.ar    1  UNL1        0.0390
      3 C         142.6181  139.3883  161.0654 C.ar    1  UNL1        0.0208
      4 C         141.1205  139.4345  161.1353 C.ar    1  UNL1        0.0683
      5 C         140.3000  138.9248  159.9877 C.ar    1  UNL1        0.0208
      6 C         138.8523  139.0980  160.3400 C.ar    1  UNL1        0.0207
      7 C         138.7780  139.7148  161.7053 C.ar    1  UNL1        0.0842
      8 N         140.1798  139.9227  162.1968 N.ar    1  UNL1       -0.2609
      9 C         140.5721  140.5150  163.5179 C.2     1  UNL1        0.3249
     10 O         142.0221  140.6611  163.8734 O.2     1  UNL1       -0.2488
     11 N         139.5145  140.9611  164.4836 N.am    1  UNL1       -0.2484
     12 C         140.9772  138.3688  158.7702 C.ar    1  UNL1        0.0390
     13 H         138.5628  140.8652  164.2503 H       1  UNL1        0.1581
     14 C         139.9068  141.5533  165.8047 C.ar    1  UNL1        0.1773
     15 C         140.3216  140.7874  167.0259 C.ar    1  UNL1        0.0737
     16 C         140.6244  141.7761  168.1125 C.ar    1  UNL1        0.1629
     17 O         140.3967  143.1531  167.5629 O.2     1  UNL1       -0.3563
     18 N         139.9532  143.0154  166.1366 N.ar    1  UNL1       -0.0620
     19 C         141.0756  141.4458  169.5044 C.3     1  UNL1        0.1409
     20 C         141.9425  141.3797  170.7267 C.3     1  UNL1        0.0162
     21 C         142.4294  142.0917  169.4995 C.3     1  UNL1        0.0162
     22 C         139.8785  140.6853  169.9927 C.3     1  UNL1        0.4035
     23 F         138.6813  139.9247  170.4810 F       1  UNL1       -0.1696
     24 F         140.6438  139.4012  169.8688 F       1  UNL1       -0.1696
     25 F         139.1132  141.9694  170.1166 F       1  UNL1       -0.1696
     26 O         143.1521  137.7666  157.4828 O.3     1  UNL1       -0.4363
     27 C         144.8680  132.6638  157.9994 C.3     1  UNL1        0.0175
     28 C         143.8504  133.3355  157.1257 C.3     1  UNL1        0.0589
     29 C         143.6176  134.8125  157.2447 C.3     1  UNL1        0.0481
     30 C         142.6001  135.4842  156.3710 C.ar    1  UNL1        0.0476
     31 C         141.8154  134.6789  155.3782 C.ar    1  UNL1        0.0772
     32 N         140.7979  135.3506  154.5044 N.ar    1  UNL1       -0.2271
     33 C         140.5651  136.8276  154.6235 C.ar    1  UNL1        0.2012
     34 N         141.3498  137.6330  155.6163 N.ar    1  UNL1       -0.1893
     35 C         142.3673  136.9613  156.4900 C.ar    1  UNL1        0.2282
     36 C         142.0482  133.2019  155.2591 C.3     1  UNL1        0.1150
     37 N         143.0657  132.5302  156.1329 N.3     1  UNL1       -0.2933
     38 H         143.7429  132.0890  155.5106 H       1  UNL1        0.1236
@<TRIPOS>BOND
     1    28    27    1
     2    28    29    1
     3    29    30    1
     4    30    31   ar
     5    31    32   ar
     6    32    33   ar
     7    33    34   ar
     8    34    35   ar
     9    35    26    1
    10    26     1    1
    11     1     2   ar
    12     2     3   ar
    13     3     4   ar
    14     4     5   ar
    15     5     6   ar
    16     6     7   ar
    17     7     8   ar
    18     8     9   am
    19     9    10    2
    20     9    11   am
    21    11    14    1
    22    14    15   ar
    23    15    16   ar
    24    16    19    1
    25    19    22    1
    26    22    23    1
    27    22    24    1
    28    22    25    1
    29    19    20    1
    30    20    21    1
    31    16    17   ar
    32    17    18   ar
    33     5    12   ar
    34    31    36    1
    35    36    37    1
    36    37    28    1
    37    35    30   ar
    38    12     1   ar
    39     8     4   ar
    40    18    14   ar
    41    21    19    1
    42    11    13    1
    43    37    38    1
@<TRIPOS>MOLECULE
*****
 38 43 0 0 0
SMALL
GASTEIGER

@<TRIPOS>ATOM
      1 C         138.2700  141.3299  159.0685 C.ar    1  UNL1        0.1473
      2 C         138.3889  142.3207  160.1884 C.ar    1  UNL1        0.0390
      3 C         138.6625  141.8453  161.5844 C.ar    1  UNL1        0.0208
      4 C         138.8172  140.3791  161.8606 C.ar    1  UNL1        0.0683
      5 C         138.6983  139.3883  160.7407 C.ar    1  UNL1        0.0208
      6 C         138.8968  138.0160  161.3130 C.ar    1  UNL1        0.0207
      7 C         139.1384  138.1587  162.7865 C.ar    1  UNL1        0.0842
      8 N         139.0892  139.6192  163.1249 N.ar    1  UNL1       -0.2609
      9 C         139.2787  140.2151  164.4884 C.2     1  UNL1        0.3249
     10 O         139.2015  141.7015  164.6746 O.2     1  UNL1       -0.2488
     11 N         139.5453  139.3246  165.6657 N.am    1  UNL1       -0.2484
     12 C         138.4247  139.8637  159.3446 C.ar    1  UNL1        0.0390
     13 H         139.5959  138.3490  165.5435 H       1  UNL1        0.1581
     14 C         139.7348  139.9205  167.0292 C.ar    1  UNL1        0.1773
     15 C         140.7501  140.9591  167.4040 C.ar    1  UNL1        0.0737
     16 C         140.5851  141.2630  168.8636 C.ar    1  UNL1        0.1629
     17 O         139.4679  140.4122  169.3908 O.2     1  UNL1       -0.3563
     18 N         138.9424  139.5825  168.2570 N.ar    1  UNL1       -0.0620
     19 C         141.3951  142.2452  169.6568 C.3     1  UNL1        0.1409
     20 C         142.5857  142.9867  170.1884 C.3     1  UNL1        0.0162
     21 C         142.7726  141.8931  169.1788 C.3     1  UNL1        0.0162
     22 C         140.2988  142.9385  170.4102 C.3     1  UNL1        0.4035
     23 F         139.2026  143.6318  171.1637 F       1  UNL1       -0.1696
     24 F         139.9845  143.7611  169.1959 F       1  UNL1       -0.1696
     25 F         140.6132  142.1159  171.6245 F       1  UNL1       -0.1696
     26 O         137.9963  141.8053  157.6723 O.3     1  UNL1       -0.4363
     27 C         141.9624  139.4698  154.8323 C.3     1  UNL1        0.0175
     28 C         140.4659  139.3710  154.8044 C.3     1  UNL1        0.0589
     29 C         139.6427  140.1824  155.7603 C.3     1  UNL1        0.0481
     30 C         138.1463  140.0835  155.7324 C.ar    1  UNL1        0.0476
     31 C         137.4730  139.1732  154.7486 C.ar    1  UNL1        0.0772
     32 N         135.9765  139.0744  154.7207 N.ar    1  UNL1       -0.2271
     33 C         135.1533  139.8858  155.6767 C.ar    1  UNL1        0.2012
     34 N         135.8266  140.7962  156.6606 N.ar    1  UNL1       -0.1893
     35 C         137.3231  140.8950  156.6885 C.ar    1  UNL1        0.2282
     36 C         138.2962  138.3618  153.7927 C.3     1  UNL1        0.1150
     37 N         139.7926  138.4607  153.8206 N.3     1  UNL1       -0.2933
     38 H         140.0851  138.7633  152.8914 H       1  UNL1        0.1236
@<TRIPOS>BOND
     1    28    27    1
     2    28    29    1
     3    29    30    1
     4    30    31   ar
     5    31    32   ar
     6    32    33   ar
     7    33    34   ar
     8    34    35   ar
     9    35    26    1
    10    26     1    1
    11     1     2   ar
    12     2     3   ar
    13     3     4   ar
    14     4     5   ar
    15     5     6   ar
    16     6     7   ar
    17     7     8   ar
    18     8     9   am
    19     9    10    2
    20     9    11   am
    21    11    14    1
    22    14    15   ar
    23    15    16   ar
    24    16    19    1
    25    19    22    1
    26    22    23    1
    27    22    24    1
    28    22    25    1
    29    19    20    1
    30    20    21    1
    31    16    17   ar
    32    17    18   ar
    33     5    12   ar
    34    31    36    1
    35    36    37    1
    36    37    28    1
    37    35    30   ar
    38    12     1   ar
    39     8     4   ar
    40    18    14   ar
    41    21    19    1
    42    11    13    1
    43    37    38    1
