@<TRIPOS>MOLECULE
*****
 22 26 0 0 0
SMALL
GASTEIGER

@<TRIPOS>ATOM
      1 O         138.0992  141.2582  164.2214 O.2     1  UNL1       -0.2699
      2 C         139.5382  141.5357  164.5416 C.2     1  UNL1        0.2487
      3 C         140.1607  142.8369  164.1299 C.ar    1  UNL1        0.0494
      4 C         139.3443  143.8605  163.3980 C.ar    1  UNL1        0.0042
      5 C         139.9669  145.1616  162.9864 C.ar    1  UNL1       -0.0002
      6 C         141.4058  145.4391  163.3066 C.ar    1  UNL1       -0.0046
      7 C         142.2222  144.4154  164.0384 C.ar    1  UNL1       -0.0260
      8 C         141.5996  143.1143  164.4500 C.ar    1  UNL1       -0.0204
      9 C         142.4160  142.0905  165.1819 C.3     1  UNL1        0.0420
     10 C         143.8550  142.3680  165.5021 C.3     1  UNL1        0.0064
     11 C         144.4775  143.6692  165.0904 C.3     1  UNL1        0.0051
     12 C         143.6611  144.6928  164.3585 C.3     1  UNL1        0.0260
     13 C         141.7935  140.7894  165.5935 C.3     1  UNL1        0.0980
     14 N         140.3545  140.5120  165.2734 N.am    1  UNL1       -0.2760
     15 C         138.7804  138.4032  165.7641 C.3     1  UNL1        0.0916
     16 C         138.1467  138.6220  166.9432 C.3     1  UNL1        0.0921
     17 N         137.7393  138.7101  167.6532 N.3     1  UNL1       -0.2713
     18 C         137.4828  137.4463  166.8871 C.3     1  UNL1        0.0722
     19 C         138.1835  137.2043  165.5831 C.3     1  UNL1        0.0191
     20 C         139.1407  138.2262  165.0452 C.3     1  UNL1        0.0224
     21 C         139.3972  139.4901  165.8113 C.3     1  UNL1        0.0191
     22 C         138.6965  139.7320  167.1153 C.3     1  UNL1        0.0722
@<TRIPOS>BOND
     1     1     2    2
     2     2     3    1
     3     3     4   ar
     4     4     5   ar
     5     5     6   ar
     6     6     7   ar
     7     7     8   ar
     8     8     9    1
     9     9    10    1
    10    10    11    1
    11    11    12    1
    12     9    13    1
    13    13    14    1
    14    15    14    1
    15    15    16    1
    16    16    17    1
    17    17    18    1
    18    18    19    1
    19    19    20    1
    20    20    21    1
    21    21    22    1
    22    14     2   am
    23    20    15    1
    24     8     3   ar
    25    22    17    1
    26    12     7    1
@<TRIPOS>MOLECULE
*****
 22 26 0 0 0
SMALL
GASTEIGER

@<TRIPOS>ATOM
      1 O         141.7021  139.6364  167.4766 O.2     1  UNL1       -0.2699
      2 C         140.8865  140.5605  166.6217 C.2     1  UNL1        0.2487
      3 C         140.0304  140.0051  165.5223 C.ar    1  UNL1        0.0494
      4 C         139.9900  138.5257  165.2778 C.ar    1  UNL1        0.0042
      5 C         139.1339  137.9704  164.1784 C.ar    1  UNL1       -0.0002
      6 C         138.3183  138.8945  163.3235 C.ar    1  UNL1       -0.0046
      7 C         138.3588  140.3738  163.5679 C.ar    1  UNL1       -0.0260
      8 C         139.2148  140.9292  164.6673 C.ar    1  UNL1       -0.0204
      9 C         139.2553  142.4086  164.9118 C.3     1  UNL1        0.0420
     10 C         138.4397  143.3326  164.0569 C.3     1  UNL1        0.0064
     11 C         137.5836  142.7773  162.9574 C.3     1  UNL1        0.0051
     12 C         137.5432  141.2979  162.7130 C.3     1  UNL1        0.0260
     13 C         140.1114  142.9639  166.0112 C.3     1  UNL1        0.0980
     14 N         140.9270  142.0399  166.8661 N.am    1  UNL1       -0.2760
     15 C         142.5885  142.4889  168.9165 C.3     1  UNL1        0.0916
     16 C         141.8692  143.0503  169.9201 C.3     1  UNL1        0.0921
     17 N         141.4749  143.3926  170.5567 N.3     1  UNL1       -0.2713
     18 C         142.9420  143.1376  170.7371 C.3     1  UNL1        0.0722
     19 C         143.7375  142.5168  169.6273 C.3     1  UNL1        0.0191
     20 C         143.0658  142.1509  168.3370 C.3     1  UNL1        0.0224
     21 C         141.5987  142.4058  168.1565 C.3     1  UNL1        0.0191
     22 C         140.8032  143.0267  169.2664 C.3     1  UNL1        0.0722
@<TRIPOS>BOND
     1     1     2    2
     2     2     3    1
     3     3     4   ar
     4     4     5   ar
     5     5     6   ar
     6     6     7   ar
     7     7     8   ar
     8     8     9    1
     9     9    10    1
    10    10    11    1
    11    11    12    1
    12     9    13    1
    13    13    14    1
    14    15    14    1
    15    15    16    1
    16    16    17    1
    17    17    18    1
    18    18    19    1
    19    19    20    1
    20    20    21    1
    21    21    22    1
    22    14     2   am
    23    20    15    1
    24     8     3   ar
    25    22    17    1
    26    12     7    1
@<TRIPOS>MOLECULE
*****
 22 26 0 0 0
SMALL
GASTEIGER

@<TRIPOS>ATOM
      1 O         140.5179  142.9125  167.5775 O.2     1  UNL1       -0.2699
      2 C         139.9508  142.0941  166.4556 C.2     1  UNL1        0.2487
      3 C         139.4543  142.7691  165.2114 C.ar    1  UNL1        0.0494
      4 C         139.5250  144.2624  165.0892 C.ar    1  UNL1        0.0042
      5 C         139.0286  144.9374  163.8450 C.ar    1  UNL1       -0.0002
      6 C         138.4615  144.1190  162.7231 C.ar    1  UNL1       -0.0046
      7 C         138.3908  142.6257  162.8453 C.ar    1  UNL1       -0.0260
      8 C         138.8872  141.9508  164.0895 C.ar    1  UNL1       -0.0204
      9 C         138.8166  140.4574  164.2118 C.3     1  UNL1        0.0420
     10 C         138.2495  139.6390  163.0899 C.3     1  UNL1        0.0064
     11 C         137.7530  140.3140  161.8457 C.3     1  UNL1        0.0051
     12 C         137.8237  141.8073  161.7234 C.3     1  UNL1        0.0260
     13 C         139.3130  139.7824  165.4560 C.3     1  UNL1        0.0980
     14 N         139.8801  140.6008  166.5779 N.am    1  UNL1       -0.2760
     15 C         140.8843  139.9232  168.9650 C.3     1  UNL1        0.0916
     16 C         142.1772  139.5554  168.7837 C.3     1  UNL1        0.0921
     17 N         142.9648  139.3235  168.7233 N.3     1  UNL1       -0.2713
     18 C         142.3625  139.2951  170.0968 C.3     1  UNL1        0.0722
     19 C         140.9327  139.7018  170.2973 C.3     1  UNL1        0.0191
     20 C         140.1053  140.1371  169.1243 C.3     1  UNL1        0.0224
     21 C         140.7076  140.1655  167.7509 C.3     1  UNL1        0.0191
     22 C         142.1374  139.7588  167.5504 C.3     1  UNL1        0.0722
@<TRIPOS>BOND
     1     1     2    2
     2     2     3    1
     3     3     4   ar
     4     4     5   ar
     5     5     6   ar
     6     6     7   ar
     7     7     8   ar
     8     8     9    1
     9     9    10    1
    10    10    11    1
    11    11    12    1
    12     9    13    1
    13    13    14    1
    14    15    14    1
    15    15    16    1
    16    16    17    1
    17    17    18    1
    18    18    19    1
    19    19    20    1
    20    20    21    1
    21    21    22    1
    22    14     2   am
    23    20    15    1
    24     8     3   ar
    25    22    17    1
    26    12     7    1
@<TRIPOS>MOLECULE
*****
 22 26 0 0 0
SMALL
GASTEIGER

@<TRIPOS>ATOM
      1 O         139.4735  138.9043  166.3303 O.2     1  UNL1       -0.2699
      2 C         139.5203  140.3451  165.9157 C.2     1  UNL1        0.2487
      3 C         138.9368  140.7661  164.5994 C.ar    1  UNL1        0.0494
      4 C         138.3066  139.7463  163.6979 C.ar    1  UNL1        0.0042
      5 C         137.7231  140.1674  162.3818 C.ar    1  UNL1       -0.0002
      6 C         137.7699  141.6082  161.9672 C.ar    1  UNL1       -0.0046
      7 C         138.4002  142.6279  162.8687 C.ar    1  UNL1       -0.0260
      8 C         138.9836  142.2069  164.1848 C.ar    1  UNL1       -0.0204
      9 C         139.6139  143.2267  165.0865 C.3     1  UNL1        0.0420
     10 C         139.6607  144.6675  164.6719 C.3     1  UNL1        0.0064
     11 C         139.0772  145.0885  163.3557 C.3     1  UNL1        0.0051
     12 C         138.4470  144.0687  162.4541 C.3     1  UNL1        0.0260
     13 C         140.1973  142.8056  166.4026 C.3     1  UNL1        0.0980
     14 N         140.1505  141.3648  166.8172 N.am    1  UNL1       -0.2760
     15 C         141.0221  140.0979  169.0084 C.3     1  UNL1        0.0916
     16 C         142.2422  139.5752  168.7296 C.3     1  UNL1        0.0921
     17 N         142.9841  139.2397  168.6074 N.3     1  UNL1       -0.2713
     18 C         142.3769  139.0442  169.9649 C.3     1  UNL1        0.0722
     19 C         141.0275  139.6222  170.2733 C.3     1  UNL1        0.0191
     20 C         140.2854  140.3958  169.2240 C.3     1  UNL1        0.0224
     21 C         140.8927  140.5913  167.8665 C.3     1  UNL1        0.0191
     22 C         142.2420  140.0133  167.5581 C.3     1  UNL1        0.0722
@<TRIPOS>BOND
     1     1     2    2
     2     2     3    1
     3     3     4   ar
     4     4     5   ar
     5     5     6   ar
     6     6     7   ar
     7     7     8   ar
     8     8     9    1
     9     9    10    1
    10    10    11    1
    11    11    12    1
    12     9    13    1
    13    13    14    1
    14    15    14    1
    15    15    16    1
    16    16    17    1
    17    17    18    1
    18    18    19    1
    19    19    20    1
    20    20    21    1
    21    21    22    1
    22    14     2   am
    23    20    15    1
    24     8     3   ar
    25    22    17    1
    26    12     7    1
@<TRIPOS>MOLECULE
*****
 22 26 0 0 0
SMALL
GASTEIGER

@<TRIPOS>ATOM
      1 O         142.9343  141.6816  167.2750 O.2     1  UNL1       -0.2699
      2 C         142.0909  142.4775  166.3235 C.2     1  UNL1        0.2487
      3 C         142.6642  142.9336  165.0145 C.ar    1  UNL1        0.0494
      4 C         144.0808  142.5938  164.6570 C.ar    1  UNL1        0.0042
      5 C         144.6540  143.0500  163.3481 C.ar    1  UNL1       -0.0002
      6 C         143.8106  143.8459  162.3967 C.ar    1  UNL1       -0.0046
      7 C         142.3941  144.1857  162.7541 C.ar    1  UNL1       -0.0260
      8 C         141.8209  143.7295  164.0631 C.ar    1  UNL1       -0.0204
      9 C         140.4042  144.0693  164.4206 C.3     1  UNL1        0.0420
     10 C         139.5609  144.8652  163.4692 C.3     1  UNL1        0.0064
     11 C         140.1341  145.3214  162.1602 C.3     1  UNL1        0.0051
     12 C         141.5507  144.9816  161.8027 C.3     1  UNL1        0.0260
     13 C         139.8310  143.6132  165.7295 C.3     1  UNL1        0.0980
     14 N         140.6744  142.8173  166.6810 N.am    1  UNL1       -0.2760
     15 C         140.1631  141.7757  169.0934 C.3     1  UNL1        0.0916
     16 C         139.6908  140.5172  168.9120 C.3     1  UNL1        0.0921
     17 N         139.4002  139.7492  168.8521 N.3     1  UNL1       -0.2713
     18 C         139.5466  140.3028  170.2385 C.3     1  UNL1        0.0722
     19 C         140.0689  141.6946  170.4390 C.3     1  UNL1        0.0191
     20 C         140.4448  142.5327  169.2532 C.3     1  UNL1        0.0224
     21 C         140.2984  141.9791  167.8668 C.3     1  UNL1        0.0191
     22 C         139.7761  140.5873  167.6663 C.3     1  UNL1        0.0722
@<TRIPOS>BOND
     1     1     2    2
     2     2     3    1
     3     3     4   ar
     4     4     5   ar
     5     5     6   ar
     6     6     7   ar
     7     7     8   ar
     8     8     9    1
     9     9    10    1
    10    10    11    1
    11    11    12    1
    12     9    13    1
    13    13    14    1
    14    15    14    1
    15    15    16    1
    16    16    17    1
    17    17    18    1
    18    18    19    1
    19    19    20    1
    20    20    21    1
    21    21    22    1
    22    14     2   am
    23    20    15    1
    24     8     3   ar
    25    22    17    1
    26    12     7    1
@<TRIPOS>MOLECULE
*****
 22 26 0 0 0
SMALL
GASTEIGER

@<TRIPOS>ATOM
      1 O         142.0366  139.0232  166.1470 O.2     1  UNL1       -0.2699
      2 C         141.9850  140.4282  165.6241 C.2     1  UNL1        0.2487
      3 C         143.1411  140.9811  164.8444 C.ar    1  UNL1        0.0494
      4 C         144.3485  140.1291  164.5875 C.ar    1  UNL1        0.0042
      5 C         145.5045  140.6821  163.8079 C.ar    1  UNL1       -0.0002
      6 C         145.4530  142.0870  163.2850 C.ar    1  UNL1       -0.0046
      7 C         144.2455  142.9391  163.5419 C.ar    1  UNL1       -0.0260
      8 C         143.0895  142.3861  164.3216 C.ar    1  UNL1       -0.0204
      9 C         141.8820  143.2381  164.5784 C.3     1  UNL1        0.0420
     10 C         141.8304  144.6431  164.0556 C.3     1  UNL1        0.0064
     11 C         142.9865  145.1961  163.2759 C.3     1  UNL1        0.0051
     12 C         144.1939  144.3440  163.0190 C.3     1  UNL1        0.0260
     13 C         140.7260  142.6852  165.3581 C.3     1  UNL1        0.0980
     14 N         140.7776  141.2802  165.8810 N.am    1  UNL1       -0.2760
     15 C         139.0329  139.8271  167.2990 C.3     1  UNL1        0.0916
     16 C         138.2649  139.1296  166.4254 C.3     1  UNL1        0.0921
     17 N         137.7742  138.6865  165.9346 N.3     1  UNL1       -0.2713
     18 C         137.5466  138.5468  167.4107 C.3     1  UNL1        0.0722
     19 C         138.3960  139.3182  168.3768 C.3     1  UNL1        0.0191
     20 C         139.4730  140.2293  167.8669 C.3     1  UNL1        0.0224
     21 C         139.7005  140.3690  166.3909 C.3     1  UNL1        0.0191
     22 C         138.8512  139.5976  165.4247 C.3     1  UNL1        0.0722
@<TRIPOS>BOND
     1     1     2    2
     2     2     3    1
     3     3     4   ar
     4     4     5   ar
     5     5     6   ar
     6     6     7   ar
     7     7     8   ar
     8     8     9    1
     9     9    10    1
    10    10    11    1
    11    11    12    1
    12     9    13    1
    13    13    14    1
    14    15    14    1
    15    15    16    1
    16    16    17    1
    17    17    18    1
    18    18    19    1
    19    19    20    1
    20    20    21    1
    21    21    22    1
    22    14     2   am
    23    20    15    1
    24     8     3   ar
    25    22    17    1
    26    12     7    1
@<TRIPOS>MOLECULE
*****
 22 26 0 0 0
SMALL
GASTEIGER

@<TRIPOS>ATOM
      1 O         141.7556  139.5962  166.1098 O.2     1  UNL1       -0.2699
      2 C         141.2346  140.7595  165.3191 C.2     1  UNL1        0.2487
      3 C         142.1111  141.9517  165.0727 C.ar    1  UNL1        0.0494
      4 C         143.5086  141.9804  165.6170 C.ar    1  UNL1        0.0042
      5 C         144.3850  143.1724  165.3705 C.ar    1  UNL1       -0.0002
      6 C         143.8640  144.3358  164.5799 C.ar    1  UNL1       -0.0046
      7 C         142.4665  144.3071  164.0356 C.ar    1  UNL1       -0.0260
      8 C         141.5901  143.1150  164.2821 C.ar    1  UNL1       -0.0204
      9 C         140.1925  143.0863  163.7378 C.3     1  UNL1        0.0420
     10 C         139.6715  144.2496  162.9472 C.3     1  UNL1        0.0064
     11 C         140.5480  145.4417  162.7007 C.3     1  UNL1        0.0051
     12 C         141.9455  145.4704  163.2450 C.3     1  UNL1        0.0260
     13 C         139.3161  141.8942  163.9842 C.3     1  UNL1        0.0980
     14 N         139.8371  140.7308  164.7749 N.am    1  UNL1       -0.2760
     15 C         138.7228  138.4054  165.4937 C.3     1  UNL1        0.0916
     16 C         138.0965  138.5934  166.6820 C.3     1  UNL1        0.0921
     17 N         137.7025  138.6590  167.4019 N.3     1  UNL1       -0.2713
     18 C         137.6742  137.3112  166.7442 C.3     1  UNL1        0.0722
     19 C         138.3668  137.1033  165.4300 C.3     1  UNL1        0.0191
     20 C         139.0878  138.2431  164.7737 C.3     1  UNL1        0.0224
     21 C         139.1161  139.5909  165.4314 C.3     1  UNL1        0.0191
     22 C         138.4235  139.7989  166.7455 C.3     1  UNL1        0.0722
@<TRIPOS>BOND
     1     1     2    2
     2     2     3    1
     3     3     4   ar
     4     4     5   ar
     5     5     6   ar
     6     6     7   ar
     7     7     8   ar
     8     8     9    1
     9     9    10    1
    10    10    11    1
    11    11    12    1
    12     9    13    1
    13    13    14    1
    14    15    14    1
    15    15    16    1
    16    16    17    1
    17    17    18    1
    18    18    19    1
    19    19    20    1
    20    20    21    1
    21    21    22    1
    22    14     2   am
    23    20    15    1
    24     8     3   ar
    25    22    17    1
    26    12     7    1
@<TRIPOS>MOLECULE
*****
 22 26 0 0 0
SMALL
GASTEIGER

@<TRIPOS>ATOM
      1 O         140.0945  143.1517  167.1056 O.2     1  UNL1       -0.2699
      2 C         140.0203  141.8195  166.4203 C.2     1  UNL1        0.2487
      3 C         139.1711  141.6526  165.1951 C.ar    1  UNL1        0.0494
      4 C         138.3961  142.8178  164.6553 C.ar    1  UNL1        0.0042
      5 C         137.5470  142.6509  163.4301 C.ar    1  UNL1       -0.0002
      6 C         137.4729  141.3186  162.7448 C.ar    1  UNL1       -0.0046
      7 C         138.2478  140.1534  163.2846 C.ar    1  UNL1       -0.0260
      8 C         139.0970  140.3203  164.5098 C.ar    1  UNL1       -0.0204
      9 C         139.8720  139.1550  165.0497 C.3     1  UNL1        0.0420
     10 C         139.7979  137.8228  164.3644 C.3     1  UNL1        0.0064
     11 C         138.9487  137.6559  163.1392 C.3     1  UNL1        0.0051
     12 C         138.1737  138.8211  162.5993 C.3     1  UNL1        0.0260
     13 C         140.7211  139.3220  166.2749 C.3     1  UNL1        0.0980
     14 N         140.7953  140.6542  166.9602 N.am    1  UNL1       -0.2760
     15 C         142.1253  141.4858  169.1294 C.3     1  UNL1        0.0916
     16 C         143.1858  142.2207  168.7113 C.3     1  UNL1        0.0921
     17 N         143.8420  142.6736  168.5059 N.3     1  UNL1       -0.2713
     18 C         143.6061  142.4642  169.9724 C.3     1  UNL1        0.0722
     19 C         142.4332  141.6515  170.4348 C.3     1  UNL1        0.0191
     20 C         141.4963  141.0482  169.4307 C.3     1  UNL1        0.0224
     21 C         141.7323  141.2576  167.9643 C.3     1  UNL1        0.0191
     22 C         142.9051  142.0703  167.5019 C.3     1  UNL1        0.0722
@<TRIPOS>BOND
     1     1     2    2
     2     2     3    1
     3     3     4   ar
     4     4     5   ar
     5     5     6   ar
     6     6     7   ar
     7     7     8   ar
     8     8     9    1
     9     9    10    1
    10    10    11    1
    11    11    12    1
    12     9    13    1
    13    13    14    1
    14    15    14    1
    15    15    16    1
    16    16    17    1
    17    17    18    1
    18    18    19    1
    19    19    20    1
    20    20    21    1
    21    21    22    1
    22    14     2   am
    23    20    15    1
    24     8     3   ar
    25    22    17    1
    26    12     7    1
@<TRIPOS>MOLECULE
*****
 22 26 0 0 0
SMALL
GASTEIGER

@<TRIPOS>ATOM
      1 O         142.6190  142.1233  167.3141 O.2     1  UNL1       -0.2699
      2 C         142.5298  141.0743  166.2456 C.2     1  UNL1        0.2487
      3 C         143.3919  141.1748  165.0221 C.ar    1  UNL1        0.0494
      4 C         144.3429  142.3243  164.8671 C.ar    1  UNL1        0.0042
      5 C         145.2049  142.4248  163.6437 C.ar    1  UNL1       -0.0002
      6 C         145.1157  141.3758  162.5752 C.ar    1  UNL1       -0.0046
      7 C         144.1647  140.2263  162.7302 C.ar    1  UNL1       -0.0260
      8 C         143.3027  140.1258  163.9537 C.ar    1  UNL1       -0.0204
      9 C         142.3516  138.9762  164.1087 C.3     1  UNL1        0.0420
     10 C         142.2625  137.9272  163.0402 C.3     1  UNL1        0.0064
     11 C         143.1245  138.0277  161.8167 C.3     1  UNL1        0.0051
     12 C         144.0756  139.1772  161.6617 C.3     1  UNL1        0.0260
     13 C         141.4896  138.8758  165.3322 C.3     1  UNL1        0.0980
     14 N         141.5788  139.9248  166.4006 N.am    1  UNL1       -0.2760
     15 C         140.2998  140.2250  168.7331 C.3     1  UNL1        0.0916
     16 C         141.1213  139.7843  169.7182 C.3     1  UNL1        0.0921
     17 N         141.5839  139.5285  170.3494 N.3     1  UNL1       -0.2713
     18 C         140.2237  140.0615  170.6896 C.3     1  UNL1        0.0722
     19 C         139.3151  140.5489  169.6001 C.3     1  UNL1        0.0191
     20 C         139.7668  140.5033  168.1705 C.3     1  UNL1        0.0224
     21 C         141.1271  139.9703  167.8303 C.3     1  UNL1        0.0191
     22 C         142.0356  139.4829  168.9198 C.3     1  UNL1        0.0722
@<TRIPOS>BOND
     1     1     2    2
     2     2     3    1
     3     3     4   ar
     4     4     5   ar
     5     5     6   ar
     6     6     7   ar
     7     7     8   ar
     8     8     9    1
     9     9    10    1
    10    10    11    1
    11    11    12    1
    12     9    13    1
    13    13    14    1
    14    15    14    1
    15    15    16    1
    16    16    17    1
    17    17    18    1
    18    18    19    1
    19    19    20    1
    20    20    21    1
    21    21    22    1
    22    14     2   am
    23    20    15    1
    24     8     3   ar
    25    22    17    1
    26    12     7    1
