@<TRIPOS>MOLECULE
*****
 35 38 0 0 0
SMALL
GASTEIGER

@<TRIPOS>ATOM
      1 C         138.0447  139.3693  163.7871 C.3     1  UNL1        0.0722
      2 C         139.9141  140.2652  169.4176 C.2     1  UNL1        0.2490
      3 O         139.2468  139.5467  170.5528 O.2     1  UNL1       -0.2699
      4 N         139.4468  140.0413  168.0100 N.am    1  UNL1       -0.2761
      5 C         138.3121  139.0987  167.7375 C.3     1  UNL1        0.0938
      6 C         137.8447  138.8747  166.3299 C.3     1  UNL1        0.0230
      7 C         138.5121  139.5933  165.1948 C.3     1  UNL1        0.0194
      8 C         139.6467  140.5358  165.4673 C.3     1  UNL1        0.0230
      9 C         140.1140  140.7598  166.8749 C.3     1  UNL1        0.0938
     10 C         142.4656  140.7273  169.5808 C.ar    1  UNL1        0.0184
     11 C         143.6002  141.6699  169.8534 C.ar    1  UNL1        0.0013
     12 C         143.3180  143.0927  170.2353 C.ar    1  UNL1        0.0000
     13 C         141.9012  143.5731  170.3446 C.ar    1  UNL1        0.0001
     14 C         140.7666  142.6306  170.0721 C.ar    1  UNL1        0.0046
     15 C         141.0488  141.2077  169.6902 C.ar    1  UNL1        0.0547
     16 O         142.9798  138.9458  167.7610 O.co2   1  UNL1       -0.5446
     17 C         142.7477  139.3045  169.1989 C.2     1  UNL1        0.0730
     18 O         142.7978  138.2404  170.2549 O.co2   1  UNL1       -0.5446
     19 N         139.0390  139.3251  162.6648 N.3     1  UNL1       -0.2724
     20 C         139.9467  138.1406  162.5132 C.3     1  UNL1        0.0758
     21 C         140.9409  138.0965  161.3910 C.3     1  UNL1        0.0609
     22 C         141.0275  139.2368  160.4203 C.3     1  UNL1        0.1687
     23 C         140.1197  140.4213  160.5719 C.3     1  UNL1        0.0609
     24 C         139.1255  140.4654  161.6942 C.3     1  UNL1        0.0758
     25 O         142.0218  139.1926  159.2980 O.3     1  UNL1       -0.4790
     26 C         141.8048  138.2643  158.1399 C.ar    1  UNL1        0.1392
     27 C         140.4218  138.0485  157.6006 C.ar    1  UNL1        0.0367
     28 C         140.2049  137.1202  156.4424 C.ar    1  UNL1        0.0021
     29 C         141.3708  136.4078  155.8237 C.ar    1  UNL1        0.0177
     30 C         142.7538  136.6236  156.3630 C.ar    1  UNL1        0.0590
     31 CL        143.9198  135.9111  155.7443 Cl      1  UNL1       -0.0824
     32 C         142.9708  137.5518  157.5211 C.ar    1  UNL1        0.0480
     33 C         141.1539  135.4795  154.6656 C.3     1  UNL1        0.1644
     34 O         141.1892  133.9950  154.8774 O.3     1  UNL1       -0.3772
     35 H         142.0849  133.7264  155.1351 H       1  UNL1        0.2109
@<TRIPOS>UNITY_ATOM_ATTR
16 1
charge -1
@<TRIPOS>BOND
     1    16    17   ar
     2    17    18   ar
     3    17    10    1
     4    10    11   ar
     5    11    12   ar
     6    12    13   ar
     7    13    14   ar
     8    14    15   ar
     9    15     2    1
    10     2     3    2
    11     2     4   am
    12     4     5    1
    13     5     6    1
    14     6     7    1
    15     7     1    1
    16     1    19    1
    17    19    20    1
    18    20    21    1
    19    21    22    1
    20    22    25    1
    21    25    26    1
    22    26    27   ar
    23    27    28   ar
    24    28    29   ar
    25    29    33    1
    26    33    34    1
    27    29    30   ar
    28    30    31    1
    29    30    32   ar
    30    22    23    1
    31    23    24    1
    32     7     8    1
    33     8     9    1
    34    15    10   ar
    35     9     4    1
    36    24    19    1
    37    32    26   ar
    38    34    35    1
@<TRIPOS>MOLECULE
*****
 35 38 0 0 0
SMALL
GASTEIGER

@<TRIPOS>ATOM
      1 C         139.2671  140.7965  162.2586 C.3     1  UNL1        0.0722
      2 C         139.7961  140.4800  168.2269 C.2     1  UNL1        0.2490
      3 O         138.9398  139.5263  169.0062 O.2     1  UNL1       -0.2699
      4 N         139.6639  140.5591  166.7348 N.am    1  UNL1       -0.2761
      5 C         138.6753  139.6846  166.0221 C.3     1  UNL1        0.0938
      6 C         138.5431  139.7637  164.5300 C.3     1  UNL1        0.0230
      7 C         139.3994  140.7174  163.7507 C.3     1  UNL1        0.0194
      8 C         140.3879  141.5919  164.4634 C.3     1  UNL1        0.0230
      9 C         140.5201  141.5128  165.9555 C.3     1  UNL1        0.0938
     10 C         142.1710  140.8512  169.2129 C.ar    1  UNL1        0.0184
     11 C         143.1595  141.7258  169.9257 C.ar    1  UNL1        0.0013
     12 C         142.7617  143.1036  170.3652 C.ar    1  UNL1        0.0000
     13 C         141.3753  143.6069  170.0919 C.ar    1  UNL1        0.0001
     14 C         140.3868  142.7324  169.3792 C.ar    1  UNL1        0.0046
     15 C         140.7846  141.3545  168.9396 C.ar    1  UNL1        0.0547
     16 O         142.8150  138.4022  169.7943 O.co2   1  UNL1       -0.5446
     17 C         142.5688  139.4733  168.7734 C.2     1  UNL1        0.0730
     18 O         142.7206  139.1665  167.3129 O.co2   1  UNL1       -0.5446
     19 N         139.9281  141.9127  161.5052 N.3     1  UNL1       -0.2724
     20 C         139.2557  143.2496  161.4028 C.3     1  UNL1        0.0758
     21 C         139.9167  144.3656  160.6494 C.3     1  UNL1        0.0609
     22 C         141.2499  144.1447  159.9985 C.3     1  UNL1        0.1687
     23 C         141.9222  142.8078  160.1010 C.3     1  UNL1        0.0609
     24 C         141.2613  141.6918  160.8544 C.3     1  UNL1        0.0758
     25 O         141.9108  145.2609  159.2452 O.3     1  UNL1       -0.4790
     26 C         141.5774  145.4915  157.8010 C.ar    1  UNL1        0.1392
     27 C         142.4464  144.9059  156.7278 C.ar    1  UNL1        0.0367
     28 C         142.1129  145.1366  155.2836 C.ar    1  UNL1        0.0021
     29 C         140.9104  145.9529  154.9127 C.ar    1  UNL1        0.0177
     30 C         140.0413  146.5386  155.9860 C.ar    1  UNL1        0.0590
     31 CL        138.8389  147.3549  155.6151 Cl      1  UNL1       -0.0824
     32 C         140.3748  146.3079  157.4301 C.ar    1  UNL1        0.0480
     33 C         140.5769  146.1836  153.4686 C.3     1  UNL1        0.1644
     34 O         140.2190  145.0240  152.5870 O.3     1  UNL1       -0.3772
     35 H         140.9906  144.4452  152.4849 H       1  UNL1        0.2109
@<TRIPOS>UNITY_ATOM_ATTR
16 1
charge -1
@<TRIPOS>BOND
     1    16    17   ar
     2    17    18   ar
     3    17    10    1
     4    10    11   ar
     5    11    12   ar
     6    12    13   ar
     7    13    14   ar
     8    14    15   ar
     9    15     2    1
    10     2     3    2
    11     2     4   am
    12     4     5    1
    13     5     6    1
    14     6     7    1
    15     7     1    1
    16     1    19    1
    17    19    20    1
    18    20    21    1
    19    21    22    1
    20    22    25    1
    21    25    26    1
    22    26    27   ar
    23    27    28   ar
    24    28    29   ar
    25    29    33    1
    26    33    34    1
    27    29    30   ar
    28    30    31    1
    29    30    32   ar
    30    22    23    1
    31    23    24    1
    32     7     8    1
    33     8     9    1
    34    15    10   ar
    35     9     4    1
    36    24    19    1
    37    32    26   ar
    38    34    35    1
@<TRIPOS>MOLECULE
*****
 35 38 0 0 0
SMALL
GASTEIGER

@<TRIPOS>ATOM
      1 C         138.1718  139.8341  163.5205 C.3     1  UNL1        0.0722
      2 C         139.9445  140.3445  169.2299 C.2     1  UNL1        0.2490
      3 O         139.2625  139.5462  170.3012 O.2     1  UNL1       -0.2699
      4 N         139.5013  140.2169  167.8026 N.am    1  UNL1       -0.2761
      5 C         138.3761  139.2910  167.4465 C.3     1  UNL1        0.0938
      6 C         137.9330  139.1634  166.0192 C.3     1  UNL1        0.0230
      7 C         138.6150  139.9617  164.9479 C.3     1  UNL1        0.0194
      8 C         139.7401  140.8876  165.3040 C.3     1  UNL1        0.0230
      9 C         140.1833  141.0152  166.7313 C.3     1  UNL1        0.0938
     10 C         142.4861  140.7782  169.5495 C.ar    1  UNL1        0.0184
     11 C         143.6112  141.7041  169.9056 C.ar    1  UNL1        0.0013
     12 C         143.3198  143.1222  170.2982 C.ar    1  UNL1        0.0000
     13 C         141.9034  143.6144  170.3347 C.ar    1  UNL1        0.0001
     14 C         140.7783  142.6885  169.9787 C.ar    1  UNL1        0.0046
     15 C         141.0696  141.2704  169.5860 C.ar    1  UNL1        0.0547
     16 O         142.8060  138.2836  170.2010 O.co2   1  UNL1       -0.5446
     17 C         142.7774  139.3601  169.1569 C.2     1  UNL1        0.0730
     18 O         143.0402  139.0186  167.7201 O.co2   1  UNL1       -0.5446
     19 N         139.0004  140.4310  162.4218 N.3     1  UNL1       -0.2724
     20 C         139.9883  139.5798  161.6805 C.3     1  UNL1        0.0758
     21 C         140.8168  140.1767  160.5818 C.3     1  UNL1        0.0609
     22 C         140.6574  141.6247  160.2243 C.3     1  UNL1        0.1687
     23 C         139.6695  142.4759  160.9656 C.3     1  UNL1        0.0609
     24 C         138.8410  141.8790  162.0643 C.3     1  UNL1        0.0758
     25 O         141.4860  142.2216  159.1255 O.3     1  UNL1       -0.4790
     26 C         140.9700  143.3983  158.3517 C.ar    1  UNL1        0.1392
     27 C         141.5483  144.7623  158.5864 C.ar    1  UNL1        0.0367
     28 C         141.0322  145.9391  157.8126 C.ar    1  UNL1        0.0021
     29 C         139.9378  145.7520  156.8040 C.ar    1  UNL1        0.0177
     30 C         139.3595  144.3880  156.5693 C.ar    1  UNL1        0.0590
     31 CL        138.2650  144.2008  155.5608 Cl      1  UNL1       -0.0824
     32 C         139.8755  143.2112  157.3431 C.ar    1  UNL1        0.0480
     33 C         139.4218  146.9287  156.0302 C.3     1  UNL1        0.1644
     34 O         138.9947  148.1723  156.7522 O.3     1  UNL1       -0.3772
     35 H         138.2138  147.9794  157.2943 H       1  UNL1        0.2109
@<TRIPOS>UNITY_ATOM_ATTR
16 1
charge -1
@<TRIPOS>BOND
     1    16    17   ar
     2    17    18   ar
     3    17    10    1
     4    10    11   ar
     5    11    12   ar
     6    12    13   ar
     7    13    14   ar
     8    14    15   ar
     9    15     2    1
    10     2     3    2
    11     2     4   am
    12     4     5    1
    13     5     6    1
    14     6     7    1
    15     7     1    1
    16     1    19    1
    17    19    20    1
    18    20    21    1
    19    21    22    1
    20    22    25    1
    21    25    26    1
    22    26    27   ar
    23    27    28   ar
    24    28    29   ar
    25    29    33    1
    26    33    34    1
    27    29    30   ar
    28    30    31    1
    29    30    32   ar
    30    22    23    1
    31    23    24    1
    32     7     8    1
    33     8     9    1
    34    15    10   ar
    35     9     4    1
    36    24    19    1
    37    32    26   ar
    38    34    35    1
@<TRIPOS>MOLECULE
*****
 35 38 0 0 0
SMALL
GASTEIGER

@<TRIPOS>ATOM
      1 C         139.0915  137.6697  163.6143 C.3     1  UNL1        0.0722
      2 C         139.7599  140.2490  168.9902 C.2     1  UNL1        0.2490
      3 O         138.5789  140.3969  169.9032 O.2     1  UNL1       -0.2699
      4 N         139.5928  139.6041  167.6463 N.am    1  UNL1       -0.2761
      5 C         138.2447  139.1072  167.2152 C.3     1  UNL1        0.0938
      6 C         138.0776  138.4624  165.8712 C.3     1  UNL1        0.0230
      7 C         139.2586  138.3145  164.9583 C.3     1  UNL1        0.0194
      8 C         140.6066  138.8114  165.3894 C.3     1  UNL1        0.0230
      9 C         140.7737  139.4562  166.7333 C.3     1  UNL1        0.0938
     10 C         141.4956  142.1735  169.1732 C.ar    1  UNL1        0.0184
     11 C         142.8437  142.6704  169.6043 C.ar    1  UNL1        0.0013
     12 C         143.8041  141.7396  170.2835 C.ar    1  UNL1        0.0000
     13 C         143.4164  140.3120  170.5316 C.ar    1  UNL1        0.0001
     14 C         142.0684  139.8151  170.1005 C.ar    1  UNL1        0.0046
     15 C         141.1079  140.7458  169.4213 C.ar    1  UNL1        0.0547
     16 O         140.2541  142.9534  167.0283 O.co2   1  UNL1       -0.5446
     17 C         140.5352  143.1043  168.4940 C.2     1  UNL1        0.0730
     18 O         139.8558  144.1859  169.2805 O.co2   1  UNL1       -0.5446
     19 N         138.8062  138.5139  162.4077 N.3     1  UNL1       -0.2724
     20 C         137.8731  139.6835  162.5142 C.3     1  UNL1        0.0758
     21 C         137.5878  140.5277  161.3076 C.3     1  UNL1        0.0609
     22 C         138.2356  140.2023  159.9945 C.3     1  UNL1        0.1687
     23 C         139.1687  139.0327  159.8879 C.3     1  UNL1        0.0609
     24 C         139.4540  138.1886  161.0945 C.3     1  UNL1        0.0758
     25 O         137.9503  141.0465  158.7878 O.3     1  UNL1       -0.4790
     26 C         138.7743  142.2702  158.5168 C.ar    1  UNL1        0.1392
     27 C         139.6587  142.8318  159.5903 C.ar    1  UNL1        0.0367
     28 C         140.4828  144.0556  159.3192 C.ar    1  UNL1        0.0021
     29 C         140.4225  144.7176  157.9746 C.ar    1  UNL1        0.0177
     30 C         139.5381  144.1560  156.9011 C.ar    1  UNL1        0.0590
     31 CL        139.4778  144.8181  155.5565 Cl      1  UNL1       -0.0824
     32 C         138.7141  142.9323  157.1721 C.ar    1  UNL1        0.0480
     33 C         141.2465  145.9413  157.7036 C.3     1  UNL1        0.1644
     34 O         142.6035  145.8084  157.0785 O.3     1  UNL1       -0.3772
     35 H         143.1972  145.3451  157.6899 H       1  UNL1        0.2109
@<TRIPOS>UNITY_ATOM_ATTR
16 1
charge -1
@<TRIPOS>BOND
     1    16    17   ar
     2    17    18   ar
     3    17    10    1
     4    10    11   ar
     5    11    12   ar
     6    12    13   ar
     7    13    14   ar
     8    14    15   ar
     9    15     2    1
    10     2     3    2
    11     2     4   am
    12     4     5    1
    13     5     6    1
    14     6     7    1
    15     7     1    1
    16     1    19    1
    17    19    20    1
    18    20    21    1
    19    21    22    1
    20    22    25    1
    21    25    26    1
    22    26    27   ar
    23    27    28   ar
    24    28    29   ar
    25    29    33    1
    26    33    34    1
    27    29    30   ar
    28    30    31    1
    29    30    32   ar
    30    22    23    1
    31    23    24    1
    32     7     8    1
    33     8     9    1
    34    15    10   ar
    35     9     4    1
    36    24    19    1
    37    32    26   ar
    38    34    35    1
@<TRIPOS>MOLECULE
*****
 35 38 0 0 0
SMALL
GASTEIGER

@<TRIPOS>ATOM
      1 C         138.4873  137.7800  162.6226 C.3     1  UNL1        0.0722
      2 C         141.7238  139.6386  167.3205 C.2     1  UNL1        0.2490
      3 O         143.1053  139.0973  167.5408 O.2     1  UNL1       -0.2699
      4 N         140.9147  139.1740  166.1460 N.am    1  UNL1       -0.2761
      5 C         141.4870  138.1679  165.1919 C.3     1  UNL1        0.0938
      6 C         140.6779  137.7033  164.0174 C.3     1  UNL1        0.0230
      7 C         139.2964  138.2447  163.7971 C.3     1  UNL1        0.0194
      8 C         138.7241  139.2506  164.7512 C.3     1  UNL1        0.0230
      9 C         139.5332  139.7153  165.9257 C.3     1  UNL1        0.0938
     10 C         141.3152  142.1112  168.0056 C.ar    1  UNL1        0.0184
     11 C         140.7428  143.1172  168.9598 C.ar    1  UNL1        0.0013
     12 C         140.0069  142.6566  170.1830 C.ar    1  UNL1        0.0000
     13 C         139.8432  141.1900  170.4520 C.ar    1  UNL1        0.0001
     14 C         140.4155  140.1841  169.4979 C.ar    1  UNL1        0.0046
     15 C         141.1515  140.6446  168.2746 C.ar    1  UNL1        0.0547
     16 O         143.5507  142.6074  166.7784 O.co2   1  UNL1       -0.5446
     17 C         142.0511  142.5718  166.7824 C.2     1  UNL1        0.0730
     18 O         141.2875  142.9967  165.5633 O.co2   1  UNL1       -0.5446
     19 N         138.6197  138.4735  161.2991 N.3     1  UNL1       -0.2724
     20 C         139.7456  138.1165  160.3746 C.3     1  UNL1        0.0758
     21 C         139.8780  138.8100  159.0512 C.3     1  UNL1        0.0609
     22 C         138.8845  139.8606  158.6523 C.3     1  UNL1        0.1687
     23 C         137.7586  140.2177  159.5768 C.3     1  UNL1        0.0609
     24 C         137.6262  139.5241  160.9002 C.3     1  UNL1        0.0758
     25 O         139.0169  140.5541  157.3288 O.3     1  UNL1       -0.4790
     26 C         139.5955  141.9363  157.2610 C.ar    1  UNL1        0.1392
     27 C         140.8870  142.2439  157.9592 C.ar    1  UNL1        0.0367
     28 C         141.4657  143.6261  157.8913 C.ar    1  UNL1        0.0021
     29 C         140.7528  144.7008  157.1252 C.ar    1  UNL1        0.0177
     30 C         139.4613  144.3933  156.4270 C.ar    1  UNL1        0.0590
     31 CL        138.7485  145.4680  155.6610 Cl      1  UNL1       -0.0824
     32 C         138.8827  143.0111  156.4949 C.ar    1  UNL1        0.0480
     33 C         141.3315  146.0830  157.0574 C.3     1  UNL1        0.1644
     34 O         142.6290  146.3875  157.7457 O.3     1  UNL1       -0.3772
     35 H         142.5125  146.3073  158.7053 H       1  UNL1        0.2109
@<TRIPOS>UNITY_ATOM_ATTR
16 1
charge -1
@<TRIPOS>BOND
     1    16    17   ar
     2    17    18   ar
     3    17    10    1
     4    10    11   ar
     5    11    12   ar
     6    12    13   ar
     7    13    14   ar
     8    14    15   ar
     9    15     2    1
    10     2     3    2
    11     2     4   am
    12     4     5    1
    13     5     6    1
    14     6     7    1
    15     7     1    1
    16     1    19    1
    17    19    20    1
    18    20    21    1
    19    21    22    1
    20    22    25    1
    21    25    26    1
    22    26    27   ar
    23    27    28   ar
    24    28    29   ar
    25    29    33    1
    26    33    34    1
    27    29    30   ar
    28    30    31    1
    29    30    32   ar
    30    22    23    1
    31    23    24    1
    32     7     8    1
    33     8     9    1
    34    15    10   ar
    35     9     4    1
    36    24    19    1
    37    32    26   ar
    38    34    35    1
@<TRIPOS>MOLECULE
*****
 35 38 0 0 0
SMALL
GASTEIGER

@<TRIPOS>ATOM
      1 C         139.5982  145.3753  162.4111 C.3     1  UNL1        0.0722
      2 C         141.5753  142.1906  167.0960 C.2     1  UNL1        0.2490
      3 O         143.0490  142.0328  167.3273 O.2     1  UNL1       -0.2699
      4 N         141.0811  142.9868  165.9248 N.am    1  UNL1       -0.2761
      5 C         142.0604  143.6252  164.9849 C.3     1  UNL1        0.0938
      6 C         141.5662  144.4214  163.8136 C.3     1  UNL1        0.0230
      7 C         140.0925  144.5791  163.5823 C.3     1  UNL1        0.0194
      8 C         139.1132  143.9407  164.5221 C.3     1  UNL1        0.0230
      9 C         139.6075  143.1446  165.6934 C.3     1  UNL1        0.0938
     10 C         140.3449  142.1600  169.3840 C.ar    1  UNL1        0.0184
     11 C         139.3655  141.5216  170.3239 C.ar    1  UNL1        0.0013
     12 C         138.6374  140.2754  169.9156 C.ar    1  UNL1        0.0000
     13 C         138.8885  139.6676  168.5674 C.ar    1  UNL1        0.0001
     14 C         139.8678  140.3060  167.6276 C.ar    1  UNL1        0.0046
     15 C         140.5960  141.5522  168.0358 C.ar    1  UNL1        0.0547
     16 O         140.3158  144.6853  169.9942 O.co2   1  UNL1       -0.5446
     17 C         141.0731  143.4062  169.7923 C.2     1  UNL1        0.0730
     18 O         142.5584  143.3734  169.9987 O.co2   1  UNL1       -0.5446
     19 N         139.6600  144.7943  161.0295 N.3     1  UNL1       -0.2724
     20 C         139.1805  143.3947  160.7823 C.3     1  UNL1        0.0758
     21 C         139.2424  142.8137  159.4008 C.3     1  UNL1        0.0609
     22 C         139.7837  143.6324  158.2664 C.3     1  UNL1        0.1687
     23 C         140.2632  145.0320  158.5136 C.3     1  UNL1        0.0609
     24 C         140.2014  145.6130  159.8951 C.3     1  UNL1        0.0758
     25 O         139.8456  143.0514  156.8849 O.3     1  UNL1       -0.4790
     26 C         138.7148  142.2083  156.3745 C.ar    1  UNL1        0.1392
     27 C         137.3224  142.7647  156.3360 C.ar    1  UNL1        0.0367
     28 C         136.1916  141.9215  155.8256 C.ar    1  UNL1        0.0021
     29 C         136.4533  140.5219  155.3538 C.ar    1  UNL1        0.0177
     30 C         137.8458  139.9655  155.3923 C.ar    1  UNL1        0.0590
     31 CL        138.1075  138.5659  154.9205 Cl      1  UNL1       -0.0824
     32 C         138.9765  140.8086  155.9027 C.ar    1  UNL1        0.0480
     33 C         135.3226  139.6788  154.8435 C.3     1  UNL1        0.1644
     34 O         134.6932  138.6492  155.7345 O.3     1  UNL1       -0.3772
     35 H         135.3393  137.9528  155.9305 H       1  UNL1        0.2109
@<TRIPOS>UNITY_ATOM_ATTR
16 1
charge -1
@<TRIPOS>BOND
     1    16    17   ar
     2    17    18   ar
     3    17    10    1
     4    10    11   ar
     5    11    12   ar
     6    12    13   ar
     7    13    14   ar
     8    14    15   ar
     9    15     2    1
    10     2     3    2
    11     2     4   am
    12     4     5    1
    13     5     6    1
    14     6     7    1
    15     7     1    1
    16     1    19    1
    17    19    20    1
    18    20    21    1
    19    21    22    1
    20    22    25    1
    21    25    26    1
    22    26    27   ar
    23    27    28   ar
    24    28    29   ar
    25    29    33    1
    26    33    34    1
    27    29    30   ar
    28    30    31    1
    29    30    32   ar
    30    22    23    1
    31    23    24    1
    32     7     8    1
    33     8     9    1
    34    15    10   ar
    35     9     4    1
    36    24    19    1
    37    32    26   ar
    38    34    35    1
@<TRIPOS>MOLECULE
*****
 35 38 0 0 0
SMALL
GASTEIGER

@<TRIPOS>ATOM
      1 C         139.7552  145.5181  162.0286 C.3     1  UNL1        0.0722
      2 C         141.9638  142.4232  166.6701 C.2     1  UNL1        0.2490
      3 O         143.4352  142.1436  166.7530 O.2     1  UNL1       -0.2699
      4 N         141.4116  143.1969  165.5097 N.am    1  UNL1       -0.2761
      5 C         142.3309  143.6911  164.4323 C.3     1  UNL1        0.0938
      6 C         141.7788  144.4648  163.2719 C.3     1  UNL1        0.0230
      7 C         140.3073  144.7444  163.1890 C.3     1  UNL1        0.0194
      8 C         139.3881  144.2503  164.2664 C.3     1  UNL1        0.0230
      9 C         139.9403  143.4765  165.4268 C.3     1  UNL1        0.0938
     10 C         140.3783  140.5922  167.6101 C.ar    1  UNL1        0.0184
     11 C         139.4591  140.0981  168.6876 C.ar    1  UNL1        0.0013
     12 C         139.2062  140.9408  169.9024 C.ar    1  UNL1        0.0000
     13 C         139.8725  142.2776  170.0399 C.ar    1  UNL1        0.0001
     14 C         140.7917  142.7717  168.9624 C.ar    1  UNL1        0.0046
     15 C         141.0446  141.9290  167.7475 C.ar    1  UNL1        0.0547
     16 O         139.6290  139.7224  165.2794 O.co2   1  UNL1       -0.5446
     17 C         140.6312  139.7495  166.3953 C.2     1  UNL1        0.0730
     18 O         141.8861  138.9339  166.2962 O.co2   1  UNL1       -0.5446
     19 N         139.7538  144.9128  160.6561 N.3     1  UNL1       -0.2724
     20 C         139.2746  143.5054  160.4576 C.3     1  UNL1        0.0758
     21 C         139.2732  142.9002  159.0852 C.3     1  UNL1        0.0609
     22 C         139.7511  143.7024  157.9113 C.3     1  UNL1        0.1687
     23 C         140.2303  145.1098  158.1098 C.3     1  UNL1        0.0609
     24 C         140.2317  145.7150  159.4822 C.3     1  UNL1        0.0758
     25 O         139.7497  143.0971  156.5388 O.3     1  UNL1       -0.4790
     26 C         138.6101  142.2232  156.1056 C.ar    1  UNL1        0.1392
     27 C         137.2143  142.7716  156.0743 C.ar    1  UNL1        0.0367
     28 C         136.0747  141.8977  155.6411 C.ar    1  UNL1        0.0021
     29 C         136.3309  140.4755  155.2392 C.ar    1  UNL1        0.0177
     30 C         137.7267  139.9271  155.2705 C.ar    1  UNL1        0.0590
     31 CL        137.9829  138.5049  154.8685 Cl      1  UNL1       -0.0824
     32 C         138.8663  140.8009  155.7036 C.ar    1  UNL1        0.0480
     33 C         135.1913  139.6017  154.8060 C.3     1  UNL1        0.1644
     34 O         134.6235  138.5857  155.7523 O.3     1  UNL1       -0.3772
     35 H         135.2901  137.9049  155.9339 H       1  UNL1        0.2109
@<TRIPOS>UNITY_ATOM_ATTR
16 1
charge -1
@<TRIPOS>BOND
     1    16    17   ar
     2    17    18   ar
     3    17    10    1
     4    10    11   ar
     5    11    12   ar
     6    12    13   ar
     7    13    14   ar
     8    14    15   ar
     9    15     2    1
    10     2     3    2
    11     2     4   am
    12     4     5    1
    13     5     6    1
    14     6     7    1
    15     7     1    1
    16     1    19    1
    17    19    20    1
    18    20    21    1
    19    21    22    1
    20    22    25    1
    21    25    26    1
    22    26    27   ar
    23    27    28   ar
    24    28    29   ar
    25    29    33    1
    26    33    34    1
    27    29    30   ar
    28    30    31    1
    29    30    32   ar
    30    22    23    1
    31    23    24    1
    32     7     8    1
    33     8     9    1
    34    15    10   ar
    35     9     4    1
    36    24    19    1
    37    32    26   ar
    38    34    35    1
@<TRIPOS>MOLECULE
*****
 35 38 0 0 0
SMALL
GASTEIGER

@<TRIPOS>ATOM
      1 C         139.6185  139.4148  158.7762 C.3     1  UNL1        0.0722
      2 C         140.0131  138.9950  164.7485 C.2     1  UNL1        0.2490
      3 O         139.4813  137.7814  165.4518 O.2     1  UNL1       -0.2699
      4 N         139.9144  139.0999  163.2554 N.am    1  UNL1       -0.2761
      5 C         139.2840  137.9913  162.4656 C.3     1  UNL1        0.0938
      6 C         139.1854  138.0963  160.9726 C.3     1  UNL1        0.0230
      7 C         139.7171  139.3098  160.2693 C.3     1  UNL1        0.0194
      8 C         140.3475  140.4184  161.0590 C.3     1  UNL1        0.0230
      9 C         140.4462  140.3134  162.5521 C.3     1  UNL1        0.0938
     10 C         142.1164  140.0792  165.8212 C.ar    1  UNL1        0.0184
     11 C         142.7467  141.1878  166.6110 C.ar    1  UNL1        0.0013
     12 C         141.9042  142.3206  167.1178 C.ar    1  UNL1        0.0000
     13 C         140.4314  142.3449  166.8348 C.ar    1  UNL1        0.0001
     14 C         139.8010  141.2364  166.0451 C.ar    1  UNL1        0.0046
     15 C         140.6435  140.1035  165.5382 C.ar    1  UNL1        0.0547
     16 O         143.4471  137.8920  166.2630 O.co2   1  UNL1       -0.5446
     17 C         142.9588  138.9464  165.3144 C.2     1  UNL1        0.0730
     18 O         143.3131  138.8679  163.8589 O.co2   1  UNL1       -0.5446
     19 N         140.3415  138.4301  157.9057 N.3     1  UNL1       -0.2724
     20 C         141.7947  138.1445  158.1435 C.3     1  UNL1        0.0758
     21 C         142.5177  137.1599  157.2730 C.3     1  UNL1        0.0609
     22 C         141.7875  136.4609  156.1648 C.3     1  UNL1        0.1687
     23 C         140.3343  136.7465  155.9271 C.3     1  UNL1        0.0609
     24 C         139.6113  137.7311  156.7975 C.3     1  UNL1        0.0758
     25 O         142.5106  135.4762  155.2943 O.3     1  UNL1       -0.4790
     26 C         142.8001  134.0955  155.8041 C.ar    1  UNL1        0.1392
     27 C         141.9051  132.9531  155.4250 C.ar    1  UNL1        0.0367
     28 C         142.1947  131.5723  155.9349 C.ar    1  UNL1        0.0021
     29 C         143.3791  131.3342  156.8238 C.ar    1  UNL1        0.0177
     30 C         144.2741  132.4767  157.2030 C.ar    1  UNL1        0.0590
     31 CL        145.4586  132.2385  158.0919 Cl      1  UNL1       -0.0824
     32 C         143.9846  133.8573  156.6931 C.ar    1  UNL1        0.0480
     33 C         143.6686  129.9535  157.3336 C.3     1  UNL1        0.1644
     34 O         143.3733  129.6043  158.7622 O.3     1  UNL1       -0.3772
     35 H         143.9523  130.1180  159.3470 H       1  UNL1        0.2109
@<TRIPOS>UNITY_ATOM_ATTR
16 1
charge -1
@<TRIPOS>BOND
     1    16    17   ar
     2    17    18   ar
     3    17    10    1
     4    10    11   ar
     5    11    12   ar
     6    12    13   ar
     7    13    14   ar
     8    14    15   ar
     9    15     2    1
    10     2     3    2
    11     2     4   am
    12     4     5    1
    13     5     6    1
    14     6     7    1
    15     7     1    1
    16     1    19    1
    17    19    20    1
    18    20    21    1
    19    21    22    1
    20    22    25    1
    21    25    26    1
    22    26    27   ar
    23    27    28   ar
    24    28    29   ar
    25    29    33    1
    26    33    34    1
    27    29    30   ar
    28    30    31    1
    29    30    32   ar
    30    22    23    1
    31    23    24    1
    32     7     8    1
    33     8     9    1
    34    15    10   ar
    35     9     4    1
    36    24    19    1
    37    32    26   ar
    38    34    35    1
@<TRIPOS>MOLECULE
*****
 35 38 0 0 0
SMALL
GASTEIGER

@<TRIPOS>ATOM
      1 C         143.9844  140.6948  158.8516 C.3     1  UNL1        0.0722
      2 C         141.6406  141.7198  164.2790 C.2     1  UNL1        0.2490
      3 O         142.3160  141.1752  165.5026 O.2     1  UNL1       -0.2699
      4 N         142.2266  141.4636  162.9221 N.am    1  UNL1       -0.2761
      5 C         143.4879  140.6626  162.7889 C.3     1  UNL1        0.0938
      6 C         144.0738  140.4064  161.4321 C.3     1  UNL1        0.0230
      7 C         143.3985  140.9510  160.2084 C.3     1  UNL1        0.0194
      8 C         142.1372  141.7519  160.3417 C.3     1  UNL1        0.0230
      9 C         141.5513  142.0082  161.6985 C.3     1  UNL1        0.0938
     10 C         139.0460  141.8370  164.3438 C.ar    1  UNL1        0.0184
     11 C         137.7847  142.6380  164.4770 C.ar    1  UNL1        0.0013
     12 C         137.8569  144.1226  164.6786 C.ar    1  UNL1        0.0000
     13 C         139.1902  144.8063  164.7470 C.ar    1  UNL1        0.0001
     14 C         140.4515  144.0054  164.6138 C.ar    1  UNL1        0.0046
     15 C         140.3794  142.5207  164.4122 C.ar    1  UNL1        0.0547
     16 O         138.8928  139.4375  165.3282 O.co2   1  UNL1       -0.5446
     17 C         138.9739  140.3524  164.1422 C.2     1  UNL1        0.0730
     18 O         138.9830  139.7826  162.7547 O.co2   1  UNL1       -0.5446
     19 N         143.4983  139.5367  158.0313 N.3     1  UNL1       -0.2724
     20 C         142.5541  138.5371  158.6305 C.3     1  UNL1        0.0758
     21 C         142.0681  137.3791  157.8102 C.3     1  UNL1        0.0609
     22 C         142.5264  137.2209  156.3907 C.3     1  UNL1        0.1687
     23 C         143.4706  138.2205  155.7915 C.3     1  UNL1        0.0609
     24 C         143.9566  139.3784  156.6118 C.3     1  UNL1        0.0758
     25 O         142.0403  136.0628  155.5704 O.3     1  UNL1       -0.4790
     26 C         142.4277  134.6631  155.9454 C.ar    1  UNL1        0.1392
     27 C         141.6380  133.5004  155.4213 C.ar    1  UNL1        0.0367
     28 C         142.0254  132.1007  155.7963 C.ar    1  UNL1        0.0021
     29 C         143.2024  131.8636  156.6954 C.ar    1  UNL1        0.0177
     30 C         143.9921  133.0262  157.2195 C.ar    1  UNL1        0.0590
     31 CL        145.1691  132.7892  158.1186 Cl      1  UNL1       -0.0824
     32 C         143.6047  134.4260  156.8445 C.ar    1  UNL1        0.0480
     33 C         143.5898  130.4639  157.0704 C.3     1  UNL1        0.1644
     34 O         143.3636  129.9724  158.4695 O.3     1  UNL1       -0.3772
     35 H         143.9305  130.4672  159.0816 H       1  UNL1        0.2109
@<TRIPOS>UNITY_ATOM_ATTR
16 1
charge -1
@<TRIPOS>BOND
     1    16    17   ar
     2    17    18   ar
     3    17    10    1
     4    10    11   ar
     5    11    12   ar
     6    12    13   ar
     7    13    14   ar
     8    14    15   ar
     9    15     2    1
    10     2     3    2
    11     2     4   am
    12     4     5    1
    13     5     6    1
    14     6     7    1
    15     7     1    1
    16     1    19    1
    17    19    20    1
    18    20    21    1
    19    21    22    1
    20    22    25    1
    21    25    26    1
    22    26    27   ar
    23    27    28   ar
    24    28    29   ar
    25    29    33    1
    26    33    34    1
    27    29    30   ar
    28    30    31    1
    29    30    32   ar
    30    22    23    1
    31    23    24    1
    32     7     8    1
    33     8     9    1
    34    15    10   ar
    35     9     4    1
    36    24    19    1
    37    32    26   ar
    38    34    35    1
