@<TRIPOS>MOLECULE
*****
 34 38 0 0 0
SMALL
GASTEIGER

@<TRIPOS>ATOM
      1 C         141.6589  139.9246  162.9385 C.ar    1  UNL1        0.0697
      2 C         140.8197  141.0847  162.4914 C.ar    1  UNL1        0.1051
      3 N         140.6738  141.0040  161.0007 N.ar    1  UNL1       -0.1681
      4 N         141.4228  139.7940  160.5265 N.ar    1  UNL1       -0.2378
      5 C         142.0316  139.1269  161.7241 C.ar    1  UNL1        0.1283
      6 N         142.8467  137.8792  161.5541 N.pl3   1  UNL1       -0.3181
      7 C         143.0530  137.2987  160.1865 C.3     1  UNL1        0.0926
      8 C         142.4442  137.9659  158.9888 C.3     1  UNL1        0.0733
      9 C         141.6291  139.2135  159.1588 C.3     1  UNL1        0.1330
     10 H         143.2463  137.4414  162.3401 H       1  UNL1        0.1482
     11 N         141.7524  139.9854  166.9055 N.ar    1  UNL1       -0.1948
     12 N         141.3556  140.2938  165.4922 N.ar    1  UNL1       -0.1624
     13 C         142.0557  139.6162  164.3518 C.ar    1  UNL1        0.1057
     14 C         143.1528  138.6302  164.6247 C.ar    1  UNL1        0.0259
     15 C         143.5496  138.3219  166.0380 C.ar    1  UNL1        0.0641
     16 C         142.8494  138.9995  167.1784 C.ar    1  UNL1        0.2805
     17 O         143.2462  138.6912  168.5918 O.2     1  UNL1       -0.2652
     18 C         142.8797  142.5096  168.0709 C.3     1  UNL1        0.0326
     19 C         141.6158  141.9251  168.6287 C.ar    1  UNL1       -0.0041
     20 C         140.9156  142.6027  169.7691 C.ar    1  UNL1       -0.0028
     21 C         139.6517  142.0182  170.3268 C.ar    1  UNL1       -0.0002
     22 C         139.0882  140.7562  169.7442 C.ar    1  UNL1        0.0015
     23 C         139.7883  140.0786  168.6037 C.ar    1  UNL1        0.0189
     24 C         141.0522  140.6631  168.0460 C.ar    1  UNL1        0.0820
     25 C         140.2300  142.1402  163.3792 C.ar    1  UNL1        0.0196
     26 C         138.7981  142.0399  163.8146 C.ar    1  UNL1        0.0039
     27 C         138.2084  143.0954  164.7023 C.ar    1  UNL1        0.0297
     28 C         139.0505  144.2512  165.1547 C.ar    1  UNL1        0.1401
     29 F         138.4608  145.3068  166.0425 F       1  UNL1       -0.2042
     30 C         140.4824  144.3516  164.7194 C.ar    1  UNL1        0.0297
     31 C         141.0721  143.2961  163.8316 C.ar    1  UNL1        0.0039
     32 C         142.6505  137.3853  157.6212 C.3     1  UNL1        0.1408
     33 O         143.7164  137.9405  156.7237 O.3     1  UNL1       -0.3819
     34 H         143.4919  138.8524  156.4808 H       1  UNL1        0.2104
@<TRIPOS>BOND
     1    18    19    1
     2    19    20   ar
     3    20    21   ar
     4    21    22   ar
     5    22    23   ar
     6    23    24   ar
     7    24    11    1
     8    11    12   ar
     9    12    13   ar
    10    13     1    1
    11     1     2   ar
    12     2    25    1
    13    25    26   ar
    14    26    27   ar
    15    27    28   ar
    16    28    29    1
    17    28    30   ar
    18    30    31   ar
    19     2     3   ar
    20     3     4   ar
    21     4     5   ar
    22     5     6    1
    23     6     7    1
    24     7     8    1
    25     8    32    1
    26    32    33    1
    27     8     9    1
    28    13    14   ar
    29    14    15   ar
    30    15    16   ar
    31    16    17    2
    32    24    19   ar
    33    16    11   ar
    34     5     1   ar
    35    31    25   ar
    36     9     4    1
    37     6    10    1
    38    33    34    1
@<TRIPOS>MOLECULE
*****
 34 38 0 0 0
SMALL
GASTEIGER

@<TRIPOS>ATOM
      1 C         138.9143  141.1647  160.2091 C.ar    1  UNL1        0.0697
      2 C         139.2452  139.7017  160.1900 C.ar    1  UNL1        0.1051
      3 N         138.9890  139.1867  158.8047 N.ar    1  UNL1       -0.1681
      4 N         138.4999  140.3313  157.9676 N.ar    1  UNL1       -0.2378
      5 C         138.4538  141.5538  158.8356 C.ar    1  UNL1        0.1283
      6 N         137.9983  142.8633  158.2632 N.pl3   1  UNL1       -0.3181
      7 C         137.5890  142.9503  156.8228 C.3     1  UNL1        0.0926
      8 C         137.6352  141.7278  155.9548 C.3     1  UNL1        0.0733
      9 C         138.0906  140.4183  156.5272 C.3     1  UNL1        0.1330
     10 H         137.9680  143.6656  158.8329 H       1  UNL1        0.1482
     11 N         140.4577  143.1786  163.2607 N.ar    1  UNL1       -0.1948
     12 N         140.3473  142.2651  162.0761 N.ar    1  UNL1       -0.1624
     13 C         139.0247  142.0782  161.3937 C.ar    1  UNL1        0.1057
     14 C         137.8123  142.8049  161.8960 C.ar    1  UNL1        0.0259
     15 C         137.9227  143.7184  163.0806 C.ar    1  UNL1        0.0641
     16 C         139.2454  143.9053  163.7630 C.ar    1  UNL1        0.2805
     17 O         139.3557  144.8188  164.9476 O.2     1  UNL1       -0.2652
     18 C         141.4115  141.1581  165.2627 C.3     1  UNL1        0.0326
     19 C         142.2573  142.3553  164.9440 C.ar    1  UNL1       -0.0041
     20 C         143.5799  142.5421  165.6264 C.ar    1  UNL1       -0.0028
     21 C         144.4257  143.7393  165.3078 C.ar    1  UNL1       -0.0002
     22 C         143.9488  144.7495  164.3068 C.ar    1  UNL1        0.0015
     23 C         142.6261  144.5626  163.6244 C.ar    1  UNL1        0.0189
     24 C         141.7803  143.3655  163.9431 C.ar    1  UNL1        0.0820
     25 C         139.7444  138.8954  161.3522 C.ar    1  UNL1        0.0196
     26 C         141.1935  138.5170  161.4351 C.ar    1  UNL1        0.0039
     27 C         141.6928  137.7107  162.5973 C.ar    1  UNL1        0.0297
     28 C         140.7430  137.2828  163.6765 C.ar    1  UNL1        0.1401
     29 F         141.2423  136.4765  164.8386 F       1  UNL1       -0.2042
     30 C         139.2939  137.6613  163.5935 C.ar    1  UNL1        0.0297
     31 C         138.7946  138.4676  162.4314 C.ar    1  UNL1        0.0039
     32 C         137.2258  141.8149  154.5143 C.3     1  UNL1        0.1408
     33 O         135.8925  142.3958  154.1472 O.3     1  UNL1       -0.3819
     34 H         135.1863  141.8215  154.4822 H       1  UNL1        0.2104
@<TRIPOS>BOND
     1    18    19    1
     2    19    20   ar
     3    20    21   ar
     4    21    22   ar
     5    22    23   ar
     6    23    24   ar
     7    24    11    1
     8    11    12   ar
     9    12    13   ar
    10    13     1    1
    11     1     2   ar
    12     2    25    1
    13    25    26   ar
    14    26    27   ar
    15    27    28   ar
    16    28    29    1
    17    28    30   ar
    18    30    31   ar
    19     2     3   ar
    20     3     4   ar
    21     4     5   ar
    22     5     6    1
    23     6     7    1
    24     7     8    1
    25     8    32    1
    26    32    33    1
    27     8     9    1
    28    13    14   ar
    29    14    15   ar
    30    15    16   ar
    31    16    17    2
    32    24    19   ar
    33    16    11   ar
    34     5     1   ar
    35    31    25   ar
    36     9     4    1
    37     6    10    1
    38    33    34    1
@<TRIPOS>MOLECULE
*****
 34 38 0 0 0
SMALL
GASTEIGER

@<TRIPOS>ATOM
      1 C         141.4642  139.5587  160.1288 C.ar    1  UNL1        0.0697
      2 C         142.9520  139.5700  160.3193 C.ar    1  UNL1        0.1051
      3 N         143.5646  138.7356  159.2337 N.ar    1  UNL1       -0.1681
      4 N         142.4554  138.2085  158.3724 N.ar    1  UNL1       -0.2378
      5 C         141.1573  138.7173  158.9255 C.ar    1  UNL1        0.1283
      6 N         139.8635  138.3486  158.2622 N.pl3   1  UNL1       -0.3181
      7 C         139.8678  137.4712  157.0456 C.3     1  UNL1        0.0926
      8 C         141.1659  136.9625  156.4924 C.3     1  UNL1        0.0733
      9 C         142.4597  137.3311  157.1558 C.3     1  UNL1        0.1330
     10 H         139.0115  138.6826  158.6252 H       1  UNL1        0.1482
     11 N         139.3670  140.6538  163.3151 N.ar    1  UNL1       -0.1948
     12 N         140.3716  139.9476  162.4536 N.ar    1  UNL1       -0.1624
     13 C         140.4597  140.2649  160.9903 C.ar    1  UNL1        0.1057
     14 C         139.5431  141.2885  160.3883 C.ar    1  UNL1        0.0259
     15 C         138.5385  141.9947  161.2499 C.ar    1  UNL1        0.0641
     16 C         138.4505  141.6773  162.7132 C.ar    1  UNL1        0.2805
     17 O         137.4459  142.3835  163.5748 O.2     1  UNL1       -0.2652
     18 C         141.1908  142.0284  165.2605 C.3     1  UNL1        0.0326
     19 C         140.1908  141.0237  165.7512 C.ar    1  UNL1       -0.0041
     20 C         140.1028  140.7063  167.2146 C.ar    1  UNL1       -0.0028
     21 C         139.1030  139.7016  167.7053 C.ar    1  UNL1       -0.0002
     22 C         138.1911  139.0144  166.7326 C.ar    1  UNL1        0.0015
     23 C         138.2791  139.3317  165.2693 C.ar    1  UNL1        0.0189
     24 C         139.2790  140.3364  164.7785 C.ar    1  UNL1        0.0820
     25 C         143.6965  140.2895  161.4047 C.ar    1  UNL1        0.0196
     26 C         144.0896  139.5601  162.6550 C.ar    1  UNL1        0.0039
     27 C         144.8341  140.2795  163.7405 C.ar    1  UNL1        0.0297
     28 C         145.1855  141.7284  163.5755 C.ar    1  UNL1        0.1401
     29 F         145.9300  142.4478  164.6609 F       1  UNL1       -0.2042
     30 C         144.7925  142.4578  162.3252 C.ar    1  UNL1        0.0297
     31 C         144.0480  141.7383  161.2397 C.ar    1  UNL1        0.0039
     32 C         141.1702  136.0850  155.2758 C.3     1  UNL1        0.1408
     33 O         140.9323  134.6105  155.4137 O.3     1  UNL1       -0.3819
     34 H         141.6656  134.2092  155.9058 H       1  UNL1        0.2104
@<TRIPOS>BOND
     1    18    19    1
     2    19    20   ar
     3    20    21   ar
     4    21    22   ar
     5    22    23   ar
     6    23    24   ar
     7    24    11    1
     8    11    12   ar
     9    12    13   ar
    10    13     1    1
    11     1     2   ar
    12     2    25    1
    13    25    26   ar
    14    26    27   ar
    15    27    28   ar
    16    28    29    1
    17    28    30   ar
    18    30    31   ar
    19     2     3   ar
    20     3     4   ar
    21     4     5   ar
    22     5     6    1
    23     6     7    1
    24     7     8    1
    25     8    32    1
    26    32    33    1
    27     8     9    1
    28    13    14   ar
    29    14    15   ar
    30    15    16   ar
    31    16    17    2
    32    24    19   ar
    33    16    11   ar
    34     5     1   ar
    35    31    25   ar
    36     9     4    1
    37     6    10    1
    38    33    34    1
@<TRIPOS>MOLECULE
*****
 34 38 0 0 0
SMALL
GASTEIGER

@<TRIPOS>ATOM
      1 C         140.9165  143.1120  159.8484 C.ar    1  UNL1        0.0697
      2 C         141.7713  144.1829  160.4586 C.ar    1  UNL1        0.1051
      3 N         141.6731  145.4038  159.5928 N.ar    1  UNL1       -0.1681
      4 N         140.7576  145.0874  158.4474 N.ar    1  UNL1       -0.2378
      5 C         140.2900  143.6710  158.6054 C.ar    1  UNL1        0.1283
      6 N         139.3541  143.0733  157.5971 N.pl3   1  UNL1       -0.3181
      7 C         138.8859  143.8920  156.4307 C.3     1  UNL1        0.0926
      8 C         139.3536  145.3084  156.2727 C.3     1  UNL1        0.0733
      9 C         140.2894  145.9062  157.2811 C.3     1  UNL1        0.1330
     10 H         139.0472  142.1436  157.7008 H       1  UNL1        0.1482
     11 N         140.1962  140.1363  162.3736 N.ar    1  UNL1       -0.1948
     12 N         140.3905  141.5228  161.8354 N.ar    1  UNL1       -0.1624
     13 C         140.7222  141.7254  160.3867 C.ar    1  UNL1        0.1057
     14 C         140.8596  140.5413  159.4761 C.ar    1  UNL1        0.0259
     15 C         140.6653  139.1547  160.0143 C.ar    1  UNL1        0.0641
     16 C         140.3336  138.9522  161.4631 C.ar    1  UNL1        0.2805
     17 O         140.1394  137.5656  162.0014 O.2     1  UNL1       -0.2652
     18 C         142.3747  140.2054  164.4351 C.3     1  UNL1        0.0326
     19 C         140.9537  139.9684  164.8531 C.ar    1  UNL1       -0.0041
     20 C         140.6220  139.7659  166.3019 C.ar    1  UNL1       -0.0028
     21 C         139.2011  139.5288  166.7200 C.ar    1  UNL1       -0.0002
     22 C         138.1119  139.4942  165.6892 C.ar    1  UNL1        0.0015
     23 C         138.4436  139.6967  164.2405 C.ar    1  UNL1        0.0189
     24 C         139.8645  139.9338  163.8224 C.ar    1  UNL1        0.0820
     25 C         142.5820  144.0553  161.7142 C.ar    1  UNL1        0.0196
     26 C         143.7970  143.1761  161.7364 C.ar    1  UNL1        0.0039
     27 C         144.6077  143.0485  162.9920 C.ar    1  UNL1        0.0297
     28 C         144.2033  143.8001  164.2255 C.ar    1  UNL1        0.1401
     29 F         145.0139  143.6725  165.4811 F       1  UNL1       -0.2042
     30 C         142.9882  144.6794  164.2033 C.ar    1  UNL1        0.0297
     31 C         142.1776  144.8069  162.9477 C.ar    1  UNL1        0.0039
     32 C         138.8853  146.1271  155.1063 C.3     1  UNL1        0.1408
     33 O         137.4665  146.0151  154.6327 O.3     1  UNL1       -0.3819
     34 H         137.3131  145.1253  154.2784 H       1  UNL1        0.2104
@<TRIPOS>BOND
     1    18    19    1
     2    19    20   ar
     3    20    21   ar
     4    21    22   ar
     5    22    23   ar
     6    23    24   ar
     7    24    11    1
     8    11    12   ar
     9    12    13   ar
    10    13     1    1
    11     1     2   ar
    12     2    25    1
    13    25    26   ar
    14    26    27   ar
    15    27    28   ar
    16    28    29    1
    17    28    30   ar
    18    30    31   ar
    19     2     3   ar
    20     3     4   ar
    21     4     5   ar
    22     5     6    1
    23     6     7    1
    24     7     8    1
    25     8    32    1
    26    32    33    1
    27     8     9    1
    28    13    14   ar
    29    14    15   ar
    30    15    16   ar
    31    16    17    2
    32    24    19   ar
    33    16    11   ar
    34     5     1   ar
    35    31    25   ar
    36     9     4    1
    37     6    10    1
    38    33    34    1
@<TRIPOS>MOLECULE
*****
 34 38 0 0 0
SMALL
GASTEIGER

@<TRIPOS>ATOM
      1 C         141.7099  139.1462  160.0589 C.ar    1  UNL1        0.0697
      2 C         143.1371  139.6077  160.0560 C.ar    1  UNL1        0.1051
      3 N         143.7167  139.3134  158.7042 N.ar    1  UNL1       -0.1681
      4 N         142.6477  138.6699  157.8716 N.ar    1  UNL1       -0.2378
      5 C         141.4074  138.5666  158.7088 C.ar    1  UNL1        0.1283
      6 N         140.1628  137.9581  158.1338 N.pl3   1  UNL1       -0.3181
      7 C         140.1586  137.4529  156.7214 C.3     1  UNL1        0.0926
      8 C         141.3989  137.5563  155.8842 C.3     1  UNL1        0.0733
      9 C         142.6434  138.1648  156.4592 C.3     1  UNL1        0.1330
     10 H         139.3488  137.8903  158.6833 H       1  UNL1        0.1482
     11 N         139.5157  140.6799  162.9886 N.ar    1  UNL1       -0.1948
     12 N         140.4725  140.5795  161.8377 N.ar    1  UNL1       -0.1624
     13 C         140.7531  139.2466  161.2097 C.ar    1  UNL1        0.1057
     14 C         140.0769  138.0139  161.7326 C.ar    1  UNL1        0.0259
     15 C         139.1201  138.1143  162.8835 C.ar    1  UNL1        0.0641
     16 C         138.8395  139.4473  163.5115 C.ar    1  UNL1        0.2805
     17 O         137.8827  139.5477  164.6623 O.2     1  UNL1       -0.2652
     18 C         141.4034  141.8025  165.0323 C.3     1  UNL1        0.0326
     19 C         140.1789  142.5742  164.6384 C.ar    1  UNL1       -0.0041
     20 C         139.8983  143.9072  165.2663 C.ar    1  UNL1       -0.0028
     21 C         138.6738  144.6790  164.8725 C.ar    1  UNL1       -0.0002
     22 C         137.7301  144.1177  163.8507 C.ar    1  UNL1        0.0015
     23 C         138.0106  142.7847  163.2227 C.ar    1  UNL1        0.0189
     24 C         139.2351  142.0129  163.6166 C.ar    1  UNL1        0.0820
     25 C         143.8581  140.2507  161.2035 C.ar    1  UNL1        0.0196
     26 C         144.1570  139.4572  162.4408 C.ar    1  UNL1        0.0039
     27 C         144.8781  140.1002  163.5882 C.ar    1  UNL1        0.0297
     28 C         145.3002  141.5367  163.4984 C.ar    1  UNL1        0.1401
     29 F         146.0212  142.1797  164.6459 F       1  UNL1       -0.2042
     30 C         145.0013  142.3302  162.2611 C.ar    1  UNL1        0.0297
     31 C         144.2803  141.6872  161.1137 C.ar    1  UNL1        0.0039
     32 C         141.3946  137.0511  154.4718 C.3     1  UNL1        0.1408
     33 O         142.6841  136.9268  153.7157 O.3     1  UNL1       -0.3819
     34 H         143.0606  137.8090  153.5714 H       1  UNL1        0.2104
@<TRIPOS>BOND
     1    18    19    1
     2    19    20   ar
     3    20    21   ar
     4    21    22   ar
     5    22    23   ar
     6    23    24   ar
     7    24    11    1
     8    11    12   ar
     9    12    13   ar
    10    13     1    1
    11     1     2   ar
    12     2    25    1
    13    25    26   ar
    14    26    27   ar
    15    27    28   ar
    16    28    29    1
    17    28    30   ar
    18    30    31   ar
    19     2     3   ar
    20     3     4   ar
    21     4     5   ar
    22     5     6    1
    23     6     7    1
    24     7     8    1
    25     8    32    1
    26    32    33    1
    27     8     9    1
    28    13    14   ar
    29    14    15   ar
    30    15    16   ar
    31    16    17    2
    32    24    19   ar
    33    16    11   ar
    34     5     1   ar
    35    31    25   ar
    36     9     4    1
    37     6    10    1
    38    33    34    1
@<TRIPOS>MOLECULE
*****
 34 38 0 0 0
SMALL
GASTEIGER

@<TRIPOS>ATOM
      1 C         140.7839  140.9900  160.9754 C.ar    1  UNL1        0.0697
      2 C         139.5047  141.7338  161.2210 C.ar    1  UNL1        0.1051
      3 N         138.5452  141.3806  160.1235 N.ar    1  UNL1       -0.1681
      4 N         139.2313  140.4184  159.1997 N.ar    1  UNL1       -0.2378
      5 C         140.6150  140.1770  159.7262 C.ar    1  UNL1        0.1283
      6 N         141.5423  139.2481  159.0002 N.pl3   1  UNL1       -0.3181
      7 C         141.0860  138.5606  157.7476 C.3     1  UNL1        0.0926
      8 C         139.7023  138.8020  157.2211 C.3     1  UNL1        0.0733
      9 C         138.7750  139.7309  157.9471 C.3     1  UNL1        0.1330
     10 H         142.4504  139.0896  159.3458 H       1  UNL1        0.1482
     11 N         143.1307  141.0195  164.1757 N.ar    1  UNL1       -0.1948
     12 N         141.8988  140.9607  163.3219 N.ar    1  UNL1       -0.1624
     13 C         142.0159  141.0488  161.8292 C.ar    1  UNL1        0.1057
     14 C         143.3650  141.1957  161.1901 C.ar    1  UNL1        0.0259
     15 C         144.5969  141.2545  162.0439 C.ar    1  UNL1        0.0641
     16 C         144.4798  141.1664  163.5367 C.ar    1  UNL1        0.2805
     17 O         145.7117  141.2252  164.3905 O.2     1  UNL1       -0.2652
     18 C         142.8568  138.3432  165.5035 C.3     1  UNL1        0.0326
     19 C         142.8766  139.5933  166.3324 C.ar    1  UNL1       -0.0041
     20 C         142.7595  139.5052  167.8253 C.ar    1  UNL1       -0.0028
     21 C         142.7793  140.7551  168.6542 C.ar    1  UNL1       -0.0002
     22 C         142.9162  142.0932  167.9903 C.ar    1  UNL1        0.0015
     23 C         143.0334  142.1813  166.4975 C.ar    1  UNL1        0.0189
     24 C         143.0136  140.9313  165.6685 C.ar    1  UNL1        0.0820
     25 C         139.2328  142.6671  162.3634 C.ar    1  UNL1        0.0196
     26 C         139.9308  143.9930  162.4311 C.ar    1  UNL1        0.0039
     27 C         139.6589  144.9263  163.5735 C.ar    1  UNL1        0.0297
     28 C         138.6890  144.5336  164.6482 C.ar    1  UNL1        0.1401
     29 F         138.4171  145.4669  165.7906 F       1  UNL1       -0.2042
     30 C         137.9910  143.2077  164.5805 C.ar    1  UNL1        0.0297
     31 C         138.2629  142.2744  163.4381 C.ar    1  UNL1        0.0039
     32 C         139.2460  138.1144  155.9684 C.3     1  UNL1        0.1408
     33 O         138.7300  136.7073  156.0306 O.3     1  UNL1       -0.3819
     34 H         139.4491  136.1105  156.2906 H       1  UNL1        0.2104
@<TRIPOS>BOND
     1    18    19    1
     2    19    20   ar
     3    20    21   ar
     4    21    22   ar
     5    22    23   ar
     6    23    24   ar
     7    24    11    1
     8    11    12   ar
     9    12    13   ar
    10    13     1    1
    11     1     2   ar
    12     2    25    1
    13    25    26   ar
    14    26    27   ar
    15    27    28   ar
    16    28    29    1
    17    28    30   ar
    18    30    31   ar
    19     2     3   ar
    20     3     4   ar
    21     4     5   ar
    22     5     6    1
    23     6     7    1
    24     7     8    1
    25     8    32    1
    26    32    33    1
    27     8     9    1
    28    13    14   ar
    29    14    15   ar
    30    15    16   ar
    31    16    17    2
    32    24    19   ar
    33    16    11   ar
    34     5     1   ar
    35    31    25   ar
    36     9     4    1
    37     6    10    1
    38    33    34    1
@<TRIPOS>MOLECULE
*****
 34 38 0 0 0
SMALL
GASTEIGER

@<TRIPOS>ATOM
      1 C         141.7369  141.5406  161.2208 C.ar    1  UNL1        0.0697
      2 C         141.1574  142.9185  161.3456 C.ar    1  UNL1        0.1051
      3 N         141.7297  143.7633  160.2461 N.ar    1  UNL1       -0.1681
      4 N         142.6628  142.9074  159.4418 N.ar    1  UNL1       -0.2378
      5 C         142.6672  141.5337  160.0442 C.ar    1  UNL1        0.1283
      6 N         143.5179  140.4541  159.4436 N.pl3   1  UNL1       -0.3181
      7 C         144.3640  140.7482  158.2405 C.3     1  UNL1        0.0926
      8 C         144.3595  142.1219  157.6380 C.3     1  UNL1        0.0733
      9 C         143.5089  143.2015  158.2387 C.3     1  UNL1        0.1330
     10 H         143.5208  139.5525  159.8390 H       1  UNL1        0.1482
     11 N         141.1343  139.3873  164.4995 N.ar    1  UNL1       -0.1948
     12 N         141.4328  140.5536  163.6048 N.ar    1  UNL1       -0.1624
     13 C         141.4384  140.3743  162.1156 C.ar    1  UNL1        0.1057
     14 C         141.1456  139.0285  161.5211 C.ar    1  UNL1        0.0259
     15 C         140.8472  137.8622  162.4159 C.ar    1  UNL1        0.0641
     16 C         140.8415  138.0416  163.9051 C.ar    1  UNL1        0.2805
     17 O         140.5430  136.8752  164.7999 O.2     1  UNL1       -0.2652
     18 C         138.5552  139.9198  165.9365 C.3     1  UNL1        0.0326
     19 C         139.8392  139.8329  166.7073 C.ar    1  UNL1       -0.0041
     20 C         139.8335  140.0122  168.1965 C.ar    1  UNL1       -0.0028
     21 C         141.1174  139.9253  168.9673 C.ar    1  UNL1       -0.0002
     22 C         142.4069  139.6591  168.2488 C.ar    1  UNL1        0.0015
     23 C         142.4125  139.4797  166.7596 C.ar    1  UNL1        0.0189
     24 C         141.1286  139.5666  165.9888 C.ar    1  UNL1        0.0820
     25 C         140.1778  143.3721  162.3870 C.ar    1  UNL1        0.0196
     26 C         140.6319  144.2590  163.5082 C.ar    1  UNL1        0.0039
     27 C         139.6523  144.7125  164.5497 C.ar    1  UNL1        0.0297
     28 C         138.2185  144.2792  164.4699 C.ar    1  UNL1        0.1401
     29 F         137.2388  144.7327  165.5113 F       1  UNL1       -0.2042
     30 C         137.7643  143.3923  163.3487 C.ar    1  UNL1        0.0297
     31 C         138.7440  142.9388  162.3072 C.ar    1  UNL1        0.0039
     32 C         145.2057  142.4159  156.4348 C.3     1  UNL1        0.1408
     33 O         146.5177  143.1250  156.5958 O.3     1  UNL1       -0.3819
     34 H         146.3601  144.0297  156.9084 H       1  UNL1        0.2104
@<TRIPOS>BOND
     1    18    19    1
     2    19    20   ar
     3    20    21   ar
     4    21    22   ar
     5    22    23   ar
     6    23    24   ar
     7    24    11    1
     8    11    12   ar
     9    12    13   ar
    10    13     1    1
    11     1     2   ar
    12     2    25    1
    13    25    26   ar
    14    26    27   ar
    15    27    28   ar
    16    28    29    1
    17    28    30   ar
    18    30    31   ar
    19     2     3   ar
    20     3     4   ar
    21     4     5   ar
    22     5     6    1
    23     6     7    1
    24     7     8    1
    25     8    32    1
    26    32    33    1
    27     8     9    1
    28    13    14   ar
    29    14    15   ar
    30    15    16   ar
    31    16    17    2
    32    24    19   ar
    33    16    11   ar
    34     5     1   ar
    35    31    25   ar
    36     9     4    1
    37     6    10    1
    38    33    34    1
@<TRIPOS>MOLECULE
*****
 34 38 0 0 0
SMALL
GASTEIGER

@<TRIPOS>ATOM
      1 C         139.7609  143.1435  160.4025 C.ar    1  UNL1        0.0697
      2 C         140.9043  144.1143  160.4081 C.ar    1  UNL1        0.1051
      3 N         140.9934  144.7333  159.0447 N.ar    1  UNL1       -0.1681
      4 N         139.9051  144.1450  158.1965 N.ar    1  UNL1       -0.2378
      5 C         139.1434  143.1624  159.0357 C.ar    1  UNL1        0.1283
      6 N         137.9859  142.4119  158.4468 N.pl3   1  UNL1       -0.3181
      7 C         137.5901  142.6439  157.0188 C.3     1  UNL1        0.0926
      8 C         138.3518  143.6265  156.1795 C.3     1  UNL1        0.0733
      9 C         139.5093  144.3771  156.7684 C.3     1  UNL1        0.1330
     10 H         137.4859  141.7669  158.9976 H       1  UNL1        0.1482
     11 N         139.8763  140.7077  163.5337 N.ar    1  UNL1       -0.1948
     12 N         140.3237  141.5497  162.3757 N.ar    1  UNL1       -0.1624
     13 C         139.3136  142.3014  161.5605 C.ar    1  UNL1        0.1057
     14 C         137.8560  142.2111  161.9033 C.ar    1  UNL1        0.0259
     15 C         137.4087  141.3691  163.0613 C.ar    1  UNL1        0.0641
     16 C         138.4188  140.6174  163.8765 C.ar    1  UNL1        0.2805
     17 O         137.9715  139.7754  165.0345 O.2     1  UNL1       -0.2652
     18 C         141.5566  142.1597  165.5507 C.3     1  UNL1        0.0326
     19 C         141.7266  140.6820  165.3573 C.ar    1  UNL1       -0.0041
     20 C         142.7368  139.9302  166.1725 C.ar    1  UNL1       -0.0028
     21 C         142.9068  138.4525  165.9792 C.ar    1  UNL1       -0.0002
     22 C         142.0667  137.7266  164.9707 C.ar    1  UNL1        0.0015
     23 C         141.0565  138.4783  164.1555 C.ar    1  UNL1        0.0189
     24 C         140.8865  139.9560  164.3488 C.ar    1  UNL1        0.0820
     25 C         141.8012  144.4137  161.5727 C.ar    1  UNL1        0.0196
     26 C         141.2839  145.2134  162.7315 C.ar    1  UNL1        0.0039
     27 C         142.1808  145.5127  163.8960 C.ar    1  UNL1        0.0297
     28 C         143.5948  145.0124  163.9017 C.ar    1  UNL1        0.1401
     29 F         144.4916  145.3117  165.0662 F       1  UNL1       -0.2042
     30 C         144.1120  144.2127  162.7429 C.ar    1  UNL1        0.0297
     31 C         143.2152  143.9133  161.5783 C.ar    1  UNL1        0.0039
     32 C         137.9560  143.8586  154.7514 C.3     1  UNL1        0.1408
     33 O         137.4391  145.2006  154.3249 O.3     1  UNL1       -0.3819
     34 H         136.5889  145.3724  154.7590 H       1  UNL1        0.2104
@<TRIPOS>BOND
     1    18    19    1
     2    19    20   ar
     3    20    21   ar
     4    21    22   ar
     5    22    23   ar
     6    23    24   ar
     7    24    11    1
     8    11    12   ar
     9    12    13   ar
    10    13     1    1
    11     1     2   ar
    12     2    25    1
    13    25    26   ar
    14    26    27   ar
    15    27    28   ar
    16    28    29    1
    17    28    30   ar
    18    30    31   ar
    19     2     3   ar
    20     3     4   ar
    21     4     5   ar
    22     5     6    1
    23     6     7    1
    24     7     8    1
    25     8    32    1
    26    32    33    1
    27     8     9    1
    28    13    14   ar
    29    14    15   ar
    30    15    16   ar
    31    16    17    2
    32    24    19   ar
    33    16    11   ar
    34     5     1   ar
    35    31    25   ar
    36     9     4    1
    37     6    10    1
    38    33    34    1
@<TRIPOS>MOLECULE
*****
 34 38 0 0 0
SMALL
GASTEIGER

@<TRIPOS>ATOM
      1 C         139.3222  141.5563  160.6192 C.ar    1  UNL1        0.0697
      2 C         139.2378  143.0178  160.9463 C.ar    1  UNL1        0.1051
      3 N         139.3616  143.7875  159.6648 N.ar    1  UNL1       -0.1681
      4 N         139.5225  142.8017  158.5457 N.ar    1  UNL1       -0.2378
      5 C         139.4981  141.4228  159.1355 C.ar    1  UNL1        0.1283
      6 N         139.6393  140.2237  158.2454 N.pl3   1  UNL1       -0.3181
      7 C         139.8048  140.4036  156.7655 C.3     1  UNL1        0.0926
      8 C         139.8292  141.7825  156.1757 C.3     1  UNL1        0.0733
      9 C         139.6880  142.9816  157.0657 C.3     1  UNL1        0.1330
     10 H         139.6233  139.3186  158.6326 H       1  UNL1        0.1482
     11 N         140.1041  139.2553  163.7567 N.ar    1  UNL1       -0.1948
     12 N         140.1820  140.3849  162.7729 N.ar    1  UNL1       -0.1624
     13 C         139.2443  140.4267  161.6030 C.ar    1  UNL1        0.1057
     14 C         138.2285  139.3387  161.4168 C.ar    1  UNL1        0.0259
     15 C         138.1506  138.2090  162.4006 C.ar    1  UNL1        0.0641
     16 C         139.0884  138.1674  163.5705 C.ar    1  UNL1        0.2805
     17 O         139.0105  137.0377  164.5544 O.2     1  UNL1       -0.2652
     18 C         139.4986  140.8536  166.2223 C.3     1  UNL1        0.0326
     19 C         140.7392  140.0127  166.1594 C.ar    1  UNL1       -0.0041
     20 C         141.6770  139.9710  167.3293 C.ar    1  UNL1       -0.0028
     21 C         142.9176  139.1302  167.2665 C.ar    1  UNL1       -0.0002
     22 C         143.2203  138.3311  166.0337 C.ar    1  UNL1        0.0015
     23 C         142.2825  138.3728  164.8638 C.ar    1  UNL1        0.0189
     24 C         141.0419  139.2136  164.9266 C.ar    1  UNL1        0.0820
     25 C         139.0607  143.6062  162.3146 C.ar    1  UNL1        0.0196
     26 C         140.2046  144.3108  162.9818 C.ar    1  UNL1        0.0039
     27 C         140.0275  144.8992  164.3502 C.ar    1  UNL1        0.0297
     28 C         138.7066  144.7831  165.0513 C.ar    1  UNL1        0.1401
     29 F         138.5295  145.3716  166.4197 F       1  UNL1       -0.2042
     30 C         137.5627  144.0786  164.3841 C.ar    1  UNL1        0.0297
     31 C         137.7398  143.4901  163.0158 C.ar    1  UNL1        0.0039
     32 C         139.9948  141.9624  154.6957 C.3     1  UNL1        0.1408
     33 O         140.2481  143.3282  154.1298 O.3     1  UNL1       -0.3819
     34 H         139.4693  143.8879  154.2752 H       1  UNL1        0.2104
@<TRIPOS>BOND
     1    18    19    1
     2    19    20   ar
     3    20    21   ar
     4    21    22   ar
     5    22    23   ar
     6    23    24   ar
     7    24    11    1
     8    11    12   ar
     9    12    13   ar
    10    13     1    1
    11     1     2   ar
    12     2    25    1
    13    25    26   ar
    14    26    27   ar
    15    27    28   ar
    16    28    29    1
    17    28    30   ar
    18    30    31   ar
    19     2     3   ar
    20     3     4   ar
    21     4     5   ar
    22     5     6    1
    23     6     7    1
    24     7     8    1
    25     8    32    1
    26    32    33    1
    27     8     9    1
    28    13    14   ar
    29    14    15   ar
    30    15    16   ar
    31    16    17    2
    32    24    19   ar
    33    16    11   ar
    34     5     1   ar
    35    31    25   ar
    36     9     4    1
    37     6    10    1
    38    33    34    1
