@<TRIPOS>MOLECULE
*****
 39 42 0 0 0
SMALL
GASTEIGER

@<TRIPOS>ATOM
      1 N         143.3594  140.1832  158.4765 N.am    1  UNL1       -0.2677
      2 C         143.7697  139.4362  157.2421 C.2     1  UNL1        0.2493
      3 O         143.2297  138.1106  156.7935 O.2     1  UNL1       -0.2699
      4 C         144.8147  140.2475  156.5352 C.ar    1  UNL1        0.0516
      5 C         145.5822  140.0107  155.2684 C.ar    1  UNL1        0.0043
      6 C         146.5852  141.0223  154.7990 C.ar    1  UNL1        0.0001
      7 C         146.8208  142.2708  155.5964 C.ar    1  UNL1       -0.0003
      8 C         146.0534  142.5075  156.8632 C.ar    1  UNL1       -0.0021
      9 C         145.0503  141.4959  157.3326 C.ar    1  UNL1        0.0089
     10 C         144.1509  141.4562  158.5324 C.3     1  UNL1        0.1751
     11 C         139.2704  138.3938  162.4862 C.2     1  UNL1        0.4046
     12 O         137.8338  138.2501  162.0794 O.2     1  UNL1       -0.2262
     13 N         140.2926  138.8411  161.4838 N.am    1  UNL1       -0.2459
     14 C         141.7292  138.9848  161.8906 C.3     1  UNL1        0.0984
     15 C         142.7514  139.4321  160.8882 C.3     1  UNL1        0.0415
     16 C         142.3371  139.7359  159.4789 C.3     1  UNL1        0.0797
     17 C         140.9005  139.5922  159.0721 C.3     1  UNL1        0.0415
     18 C         139.8783  139.1449  160.0745 C.3     1  UNL1        0.0984
     19 O         139.6847  138.0900  163.8954 O.3     1  UNL1       -0.4418
     20 C         138.5095  137.2854  165.4676 C.3     1  UNL1        0.0437
     21 C         138.9129  138.6670  165.0450 C.3     1  UNL1        0.1378
     22 C         139.3162  140.0486  164.6224 C.3     1  UNL1        0.0437
     23 C         138.1411  139.2439  166.1945 C.3     1  UNL1        0.0437
     24 C         144.0591  142.5053  159.6005 C.2     1  UNL1        0.2451
     25 O         143.3171  143.7818  159.3363 O.2     1  UNL1       -0.2729
     26 N         144.7094  142.2779  160.9331 N.am    1  UNL1       -0.2988
     27 H         145.1964  141.4400  161.1065 H       1  UNL1        0.1498
     28 C         144.6176  143.3270  162.0012 C.3     1  UNL1        0.1164
     29 C         143.2813  143.7048  162.5684 C.ar    1  UNL1       -0.0024
     30 C         142.1265  142.7531  162.4649 C.ar    1  UNL1        0.0005
     31 C         140.7902  143.1309  163.0321 C.ar    1  UNL1        0.0369
     32 C         140.6087  144.4602  163.7028 C.ar    1  UNL1        0.1468
     33 C         141.7637  145.4118  163.8063 C.ar    1  UNL1        0.0369
     34 C         143.0999  145.0341  163.2392 C.ar    1  UNL1        0.0005
     35 O         139.2725  144.8380  164.2700 O.3     1  UNL1       -0.4045
     36 C         138.2447  143.7787  164.5374 C.3     1  UNL1        0.5753
     37 F         137.2168  142.7194  164.8047 F       1  UNL1       -0.1328
     38 F         137.4339  144.2723  163.3759 F       1  UNL1       -0.1328
     39 F         139.0555  143.2851  165.6988 F       1  UNL1       -0.1328
@<TRIPOS>BOND
     1    20    21    1
     2    21    22    1
     3    21    23    1
     4    21    19    1
     5    19    11    1
     6    11    12    2
     7    11    13   am
     8    13    14    1
     9    14    15    1
    10    15    16    1
    11    16     1    1
    12     1     2   am
    13     2     3    2
    14     2     4    1
    15     4     5   ar
    16     5     6   ar
    17     6     7   ar
    18     7     8   ar
    19     8     9   ar
    20     9    10    1
    21    10    24    1
    22    24    25    2
    23    24    26   am
    24    26    28    1
    25    28    29    1
    26    29    30   ar
    27    30    31   ar
    28    31    32   ar
    29    32    35    1
    30    35    36    1
    31    36    37    1
    32    36    38    1
    33    36    39    1
    34    32    33   ar
    35    33    34   ar
    36    16    17    1
    37    17    18    1
    38    18    13    1
    39    10     1    1
    40    34    29   ar
    41     9     4   ar
    42    26    27    1
@<TRIPOS>MOLECULE
*****
 39 42 0 0 0
SMALL
GASTEIGER

@<TRIPOS>ATOM
      1 N         140.6245  138.8455  158.2024 N.am    1  UNL1       -0.2677
      2 C         139.8721  138.3217  157.0152 C.2     1  UNL1        0.2493
      3 O         138.5133  138.7698  156.5648 O.2     1  UNL1       -0.2699
      4 C         140.7170  137.2712  156.3575 C.ar    1  UNL1        0.0516
      5 C         140.4903  136.4127  155.1486 C.ar    1  UNL1        0.0043
      6 C         141.5384  135.4287  154.7204 C.ar    1  UNL1        0.0001
      7 C         142.8130  135.3032  155.5012 C.ar    1  UNL1       -0.0003
      8 C         143.0396  136.1617  156.7101 C.ar    1  UNL1       -0.0021
      9 C         141.9916  137.1457  157.1383 C.ar    1  UNL1        0.0089
     10 C         141.9344  138.1187  158.2785 C.3     1  UNL1        0.1751
     11 C         138.7275  143.1007  161.9833 C.2     1  UNL1        0.4046
     12 O         138.8025  144.5450  161.5856 O.2     1  UNL1       -0.2262
     13 N         139.2017  142.0369  161.0381 N.am    1  UNL1       -0.2459
     14 C         139.1267  140.5925  161.4358 C.3     1  UNL1        0.0984
     15 C         139.6009  139.5288  160.4905 C.3     1  UNL1        0.0415
     16 C         140.1502  139.9093  159.1477 C.3     1  UNL1        0.0797
     17 C         140.2253  141.3536  158.7500 C.3     1  UNL1        0.0415
     18 C         139.7510  142.4174  159.6952 C.3     1  UNL1        0.0984
     19 O         138.1782  142.7201  163.3262 O.3     1  UNL1       -0.4418
     20 C         137.9066  144.2884  164.7286 C.3     1  UNL1        0.0437
     21 C         138.8818  143.1589  164.5761 C.3     1  UNL1        0.1378
     22 C         139.8570  142.0295  164.4236 C.3     1  UNL1        0.0437
     23 C         139.5855  143.5977  165.8260 C.3     1  UNL1        0.0437
     24 C         143.0001  138.3281  159.3131 C.2     1  UNL1        0.2451
     25 O         144.1398  139.2634  159.0373 O.2     1  UNL1       -0.2729
     26 N         142.9261  137.6020  160.6237 N.am    1  UNL1       -0.2988
     27 H         142.1781  136.9880  160.8047 H       1  UNL1        0.1498
     28 C         143.9919  137.8114  161.6583 C.3     1  UNL1        0.1164
     29 C         143.8891  138.9585  162.6193 C.ar    1  UNL1       -0.0024
     30 C         143.0736  138.8178  163.8704 C.ar    1  UNL1        0.0005
     31 C         142.9708  139.9650  164.8315 C.ar    1  UNL1        0.0369
     32 C         143.6833  141.2527  164.5414 C.ar    1  UNL1        0.1468
     33 C         144.4987  141.3932  163.2902 C.ar    1  UNL1        0.0369
     34 C         144.6016  140.2461  162.3292 C.ar    1  UNL1        0.0005
     35 O         143.5805  142.3997  165.5024 O.3     1  UNL1       -0.4045
     36 C         143.8596  143.7973  165.0346 C.3     1  UNL1        0.5753
     37 F         144.1387  145.1949  164.5667 F       1  UNL1       -0.1328
     38 F         145.1502  143.7955  165.7990 F       1  UNL1       -0.1328
     39 F         142.5690  143.7992  164.2701 F       1  UNL1       -0.1328
@<TRIPOS>BOND
     1    20    21    1
     2    21    22    1
     3    21    23    1
     4    21    19    1
     5    19    11    1
     6    11    12    2
     7    11    13   am
     8    13    14    1
     9    14    15    1
    10    15    16    1
    11    16     1    1
    12     1     2   am
    13     2     3    2
    14     2     4    1
    15     4     5   ar
    16     5     6   ar
    17     6     7   ar
    18     7     8   ar
    19     8     9   ar
    20     9    10    1
    21    10    24    1
    22    24    25    2
    23    24    26   am
    24    26    28    1
    25    28    29    1
    26    29    30   ar
    27    30    31   ar
    28    31    32   ar
    29    32    35    1
    30    35    36    1
    31    36    37    1
    32    36    38    1
    33    36    39    1
    34    32    33   ar
    35    33    34   ar
    36    16    17    1
    37    17    18    1
    38    18    13    1
    39    10     1    1
    40    34    29   ar
    41     9     4   ar
    42    26    27    1
@<TRIPOS>MOLECULE
*****
 39 42 0 0 0
SMALL
GASTEIGER

@<TRIPOS>ATOM
      1 N         140.5583  138.6208  158.0275 N.am    1  UNL1       -0.2677
      2 C         139.9334  138.0588  156.7851 C.2     1  UNL1        0.2493
      3 O         138.5563  138.3646  156.2749 O.2     1  UNL1       -0.2699
      4 C         140.9272  137.1374  156.1423 C.ar    1  UNL1        0.0516
      5 C         140.8639  136.3042  154.8966 C.ar    1  UNL1        0.0043
      6 C         142.0399  135.4636  154.4961 C.ar    1  UNL1        0.0001
      7 C         143.2791  135.4561  155.3412 C.ar    1  UNL1       -0.0003
      8 C         143.3423  136.2892  156.5869 C.ar    1  UNL1       -0.0021
      9 C         142.1664  137.1299  156.9874 C.ar    1  UNL1        0.0089
     10 C         141.9384  138.0467  158.1526 C.3     1  UNL1        0.1751
     11 C         137.9887  142.4864  161.8293 C.2     1  UNL1        0.4046
     12 O         136.9848  141.9980  162.8311 O.2     1  UNL1       -0.2262
     13 N         138.6311  141.5200  160.8789 N.am    1  UNL1       -0.2459
     14 C         139.6350  142.0085  159.8771 C.3     1  UNL1        0.0984
     15 C         140.2774  141.0421  158.9267 C.3     1  UNL1        0.0415
     16 C         139.9159  139.5872  158.9780 C.3     1  UNL1        0.0797
     17 C         138.9120  139.0988  159.9797 C.3     1  UNL1        0.0415
     18 C         138.2696  140.0652  160.9302 C.3     1  UNL1        0.0984
     19 O         138.3502  143.9413  161.7781 O.3     1  UNL1       -0.4418
     20 C         139.9397  145.2578  161.2879 C.3     1  UNL1        0.0437
     21 C         139.5757  144.4351  162.4882 C.3     1  UNL1        0.1378
     22 C         139.2116  143.6124  163.6885 C.3     1  UNL1        0.0437
     23 C         140.8012  144.9289  163.1984 C.3     1  UNL1        0.0437
     24 C         142.9184  138.3382  159.2501 C.2     1  UNL1        0.2451
     25 O         144.0686  139.2682  159.0011 O.2     1  UNL1       -0.2729
     26 N         142.7483  137.6996  160.5967 N.am    1  UNL1       -0.2988
     27 H         141.9933  137.0891  160.7602 H       1  UNL1        0.1498
     28 C         143.7283  137.9910  161.6942 C.3     1  UNL1        0.1164
     29 C         143.5515  139.2073  162.5541 C.ar    1  UNL1       -0.0024
     30 C         142.2592  139.9682  162.5202 C.ar    1  UNL1        0.0005
     31 C         142.0823  141.1846  163.3800 C.ar    1  UNL1        0.0369
     32 C         143.1976  141.6400  164.2737 C.ar    1  UNL1        0.1468
     33 C         144.4898  140.8790  164.3076 C.ar    1  UNL1        0.0369
     34 C         144.6668  139.6627  163.4478 C.ar    1  UNL1        0.0005
     35 O         143.0207  142.8563  165.1336 O.3     1  UNL1       -0.4045
     36 C         144.2220  143.5736  165.6742 C.3     1  UNL1        0.5753
     37 F         145.4234  144.2909  166.2148 F       1  UNL1       -0.1328
     38 F         144.3971  144.2721  164.3583 F       1  UNL1       -0.1328
     39 F         144.0469  142.8751  166.9900 F       1  UNL1       -0.1328
@<TRIPOS>BOND
     1    20    21    1
     2    21    22    1
     3    21    23    1
     4    21    19    1
     5    19    11    1
     6    11    12    2
     7    11    13   am
     8    13    14    1
     9    14    15    1
    10    15    16    1
    11    16     1    1
    12     1     2   am
    13     2     3    2
    14     2     4    1
    15     4     5   ar
    16     5     6   ar
    17     6     7   ar
    18     7     8   ar
    19     8     9   ar
    20     9    10    1
    21    10    24    1
    22    24    25    2
    23    24    26   am
    24    26    28    1
    25    28    29    1
    26    29    30   ar
    27    30    31   ar
    28    31    32   ar
    29    32    35    1
    30    35    36    1
    31    36    37    1
    32    36    38    1
    33    36    39    1
    34    32    33   ar
    35    33    34   ar
    36    16    17    1
    37    17    18    1
    38    18    13    1
    39    10     1    1
    40    34    29   ar
    41     9     4   ar
    42    26    27    1
@<TRIPOS>MOLECULE
*****
 39 42 0 0 0
SMALL
GASTEIGER

@<TRIPOS>ATOM
      1 N         139.6166  142.8534  158.3261 N.am    1  UNL1       -0.2677
      2 C         139.2349  142.7086  156.8828 C.2     1  UNL1        0.2493
      3 O         138.7245  141.4600  156.2267 O.2     1  UNL1       -0.2699
      4 C         139.4531  144.0317  156.2106 C.ar    1  UNL1        0.0516
      5 C         139.2481  144.4845  154.7954 C.ar    1  UNL1        0.0043
      6 C         139.5598  145.8996  154.4081 C.ar    1  UNL1        0.0001
      7 C         140.0764  146.8621  155.4361 C.ar    1  UNL1       -0.0003
      8 C         140.2814  146.4094  156.8513 C.ar    1  UNL1       -0.0021
      9 C         139.9697  144.9942  157.2386 C.ar    1  UNL1        0.0089
     10 C         140.0708  144.2659  158.5460 C.3     1  UNL1        0.1751
     11 C         139.3701  138.5395  162.4890 C.2     1  UNL1        0.4046
     12 O         140.3983  137.4474  162.4992 O.2     1  UNL1       -0.2262
     13 N         139.4317  139.6179  161.4483 N.am    1  UNL1       -0.2459
     14 C         138.4036  140.7101  161.4382 C.3     1  UNL1        0.0984
     15 C         138.4652  141.7885  160.3975 C.3     1  UNL1        0.0415
     16 C         139.5550  141.7749  159.3669 C.3     1  UNL1        0.0797
     17 C         140.5831  140.6828  159.3770 C.3     1  UNL1        0.0415
     18 C         140.5215  139.6043  160.4177 C.3     1  UNL1        0.0984
     19 O         138.2804  138.5531  163.5196 O.3     1  UNL1       -0.4418
     20 C         138.8742  137.4240  165.2145 C.3     1  UNL1        0.0437
     21 C         138.6034  138.8752  164.9486 C.3     1  UNL1        0.1378
     22 C         138.3326  140.3264  164.6826 C.3     1  UNL1        0.0437
     23 C         138.9265  139.1974  166.3775 C.3     1  UNL1        0.0437
     24 C         140.5431  144.8481  159.8453 C.2     1  UNL1        0.2451
     25 O         142.0054  145.0964  160.0684 O.2     1  UNL1       -0.2729
     26 N         139.5529  145.1819  160.9216 N.am    1  UNL1       -0.2988
     27 H         138.5931  145.0190  160.7752 H       1  UNL1        0.1498
     28 C         140.0252  145.7641  162.2208 C.3     1  UNL1        0.1164
     29 C         140.1384  144.8922  163.4361 C.ar    1  UNL1       -0.0024
     30 C         139.0517  144.9020  164.4700 C.ar    1  UNL1        0.0005
     31 C         139.1649  144.0301  165.6854 C.ar    1  UNL1        0.0369
     32 C         140.3647  143.1484  165.8668 C.ar    1  UNL1        0.1468
     33 C         141.4514  143.1386  164.8328 C.ar    1  UNL1        0.0369
     34 C         141.3383  144.0104  163.6175 C.ar    1  UNL1        0.0005
     35 O         140.4779  142.2765  167.0821 O.3     1  UNL1       -0.4045
     36 C         141.2951  142.7285  168.2559 C.3     1  UNL1        0.5753
     37 F         142.1123  143.1806  169.4297 F       1  UNL1       -0.1328
     38 F         140.1051  143.4600  168.8026 F       1  UNL1       -0.1328
     39 F         142.4851  141.9971  167.7092 F       1  UNL1       -0.1328
@<TRIPOS>BOND
     1    20    21    1
     2    21    22    1
     3    21    23    1
     4    21    19    1
     5    19    11    1
     6    11    12    2
     7    11    13   am
     8    13    14    1
     9    14    15    1
    10    15    16    1
    11    16     1    1
    12     1     2   am
    13     2     3    2
    14     2     4    1
    15     4     5   ar
    16     5     6   ar
    17     6     7   ar
    18     7     8   ar
    19     8     9   ar
    20     9    10    1
    21    10    24    1
    22    24    25    2
    23    24    26   am
    24    26    28    1
    25    28    29    1
    26    29    30   ar
    27    30    31   ar
    28    31    32   ar
    29    32    35    1
    30    35    36    1
    31    36    37    1
    32    36    38    1
    33    36    39    1
    34    32    33   ar
    35    33    34   ar
    36    16    17    1
    37    17    18    1
    38    18    13    1
    39    10     1    1
    40    34    29   ar
    41     9     4   ar
    42    26    27    1
@<TRIPOS>MOLECULE
*****
 39 42 0 0 0
SMALL
GASTEIGER

@<TRIPOS>ATOM
      1 N         140.6215  138.2849  157.9042 N.am    1  UNL1       -0.2677
      2 C         140.0030  137.6925  156.6727 C.2     1  UNL1        0.2493
      3 O         138.5938  137.9044  156.2047 O.2     1  UNL1       -0.2699
      4 C         141.0412  136.8510  155.9914 C.ar    1  UNL1        0.0516
      5 C         141.0018  136.0283  154.7378 C.ar    1  UNL1        0.0043
      6 C         142.2226  135.2779  154.2946 C.ar    1  UNL1        0.0001
      7 C         143.4828  135.3502  155.1050 C.ar    1  UNL1       -0.0003
      8 C         143.5222  136.1729  156.3586 C.ar    1  UNL1       -0.0021
      9 C         142.3013  136.9233  156.8018 C.ar    1  UNL1        0.0089
     10 C         142.0420  137.8095  157.9839 C.3     1  UNL1        0.1751
     11 C         137.8930  141.9179  161.8229 C.2     1  UNL1        0.4046
     12 O         137.7600  143.3813  161.5219 O.2     1  UNL1       -0.2262
     13 N         138.5751  141.0096  160.8432 N.am    1  UNL1       -0.2459
     14 C         138.7081  139.5462  161.1442 C.3     1  UNL1        0.0984
     15 C         139.3903  138.6379  160.1645 C.3     1  UNL1        0.0415
     16 C         139.9394  139.1931  158.8838 C.3     1  UNL1        0.0797
     17 C         139.8064  140.6565  158.5829 C.3     1  UNL1        0.0415
     18 C         139.1243  141.5648  159.5625 C.3     1  UNL1        0.0984
     19 O         137.3439  141.3627  163.1036 O.3     1  UNL1       -0.4418
     20 C         138.1299  142.8596  164.3847 C.3     1  UNL1        0.0437
     21 C         138.1881  141.3613  164.3434 C.3     1  UNL1        0.1378
     22 C         138.2463  139.8630  164.3021 C.3     1  UNL1        0.0437
     23 C         139.0323  141.3600  165.5833 C.3     1  UNL1        0.0437
     24 C         143.0297  138.1589  159.0574 C.2     1  UNL1        0.2451
     25 O         144.0322  139.2506  158.8277 O.2     1  UNL1       -0.2729
     26 N         143.0149  137.4164  160.3608 N.am    1  UNL1       -0.2988
     27 H         142.3568  136.6998  160.5116 H       1  UNL1        0.1498
     28 C         144.0026  137.7658  161.4343 C.3     1  UNL1        0.1164
     29 C         143.5277  138.3699  162.7224 C.ar    1  UNL1       -0.0024
     30 C         142.1993  137.9704  163.2933 C.ar    1  UNL1        0.0005
     31 C         141.7244  138.5745  164.5816 C.ar    1  UNL1        0.0369
     32 C         142.5777  139.5781  165.2989 C.ar    1  UNL1        0.1468
     33 C         143.9061  139.9776  164.7280 C.ar    1  UNL1        0.0369
     34 C         144.3810  139.3735  163.4398 C.ar    1  UNL1        0.0005
     35 O         142.1028  140.1822  166.5871 O.3     1  UNL1       -0.4045
     36 C         142.3283  139.4598  167.8822 C.3     1  UNL1        0.5753
     37 F         142.5538  138.7375  169.1773 F       1  UNL1       -0.1328
     38 F         143.4509  138.6870  167.2557 F       1  UNL1       -0.1328
     39 F         141.2057  140.2326  168.5087 F       1  UNL1       -0.1328
@<TRIPOS>BOND
     1    20    21    1
     2    21    22    1
     3    21    23    1
     4    21    19    1
     5    19    11    1
     6    11    12    2
     7    11    13   am
     8    13    14    1
     9    14    15    1
    10    15    16    1
    11    16     1    1
    12     1     2   am
    13     2     3    2
    14     2     4    1
    15     4     5   ar
    16     5     6   ar
    17     6     7   ar
    18     7     8   ar
    19     8     9   ar
    20     9    10    1
    21    10    24    1
    22    24    25    2
    23    24    26   am
    24    26    28    1
    25    28    29    1
    26    29    30   ar
    27    30    31   ar
    28    31    32   ar
    29    32    35    1
    30    35    36    1
    31    36    37    1
    32    36    38    1
    33    36    39    1
    34    32    33   ar
    35    33    34   ar
    36    16    17    1
    37    17    18    1
    38    18    13    1
    39    10     1    1
    40    34    29   ar
    41     9     4   ar
    42    26    27    1
@<TRIPOS>MOLECULE
*****
 39 42 0 0 0
SMALL
GASTEIGER

@<TRIPOS>ATOM
      1 N         138.6180  142.0060  158.8654 N.am    1  UNL1       -0.2677
      2 C         137.8413  141.6263  157.6396 C.2     1  UNL1        0.2493
      3 O         136.9467  140.4307  157.4978 O.2     1  UNL1       -0.2699
      4 C         138.1163  142.6522  156.5803 C.ar    1  UNL1        0.0516
      5 C         137.6270  142.7942  155.1696 C.ar    1  UNL1        0.0043
      6 C         138.0844  143.9500  154.3299 C.ar    1  UNL1        0.0001
      7 C         139.0311  144.9637  154.9011 C.ar    1  UNL1       -0.0003
      8 C         139.5203  144.8217  156.3119 C.ar    1  UNL1       -0.0021
      9 C         139.0630  143.6659  157.1515 C.ar    1  UNL1        0.0089
     10 C         139.3730  143.2665  158.5637 C.3     1  UNL1        0.1751
     11 C         138.6917  139.0088  164.0626 C.2     1  UNL1        0.4046
     12 O         139.4850  137.7418  164.1866 O.2     1  UNL1       -0.2262
     13 N         138.6732  139.7581  162.7633 N.am    1  UNL1       -0.2459
     14 C         137.8799  141.0250  162.6394 C.3     1  UNL1        0.0984
     15 C         137.8615  141.7743  161.3401 C.3     1  UNL1        0.0415
     16 C         138.6364  141.2567  160.1647 C.3     1  UNL1        0.0797
     17 C         139.4297  139.9897  160.2887 C.3     1  UNL1        0.0415
     18 C         139.4482  139.2404  161.5880 C.3     1  UNL1        0.0984
     19 O         137.9167  139.5264  165.2380 O.3     1  UNL1       -0.4418
     20 C         137.7201  138.4796  167.0725 C.3     1  UNL1        0.0437
     21 C         138.5691  139.6163  166.5857 C.3     1  UNL1        0.1378
     22 C         139.4182  140.7531  166.0988 C.3     1  UNL1        0.0437
     23 C         139.2216  139.7063  167.9334 C.3     1  UNL1        0.0437
     24 C         140.2790  143.9991  159.5085 C.2     1  UNL1        0.2451
     25 O         141.7625  143.9854  159.2872 O.2     1  UNL1       -0.2729
     26 N         139.7015  144.7454  160.6745 N.am    1  UNL1       -0.2988
     27 H         138.7278  144.7544  160.8198 H       1  UNL1        0.1498
     28 C         140.6075  145.4779  161.6193 C.3     1  UNL1        0.1164
     29 C         141.3692  144.7209  162.6665 C.ar    1  UNL1       -0.0024
     30 C         142.6249  145.3011  163.2466 C.ar    1  UNL1        0.0005
     31 C         143.3867  144.5441  164.2939 C.ar    1  UNL1        0.0369
     32 C         142.8928  143.2070  164.7610 C.ar    1  UNL1        0.1468
     33 C         141.6370  142.6269  164.1807 C.ar    1  UNL1        0.0369
     34 C         140.8753  143.3838  163.1335 C.ar    1  UNL1        0.0005
     35 O         143.6545  142.4499  165.8082 O.3     1  UNL1       -0.4045
     36 C         143.1045  141.1655  166.3539 C.3     1  UNL1        0.5753
     37 F         142.5545  139.8811  166.8996 F       1  UNL1       -0.1328
     38 F         142.3475  141.9328  167.3970 F       1  UNL1       -0.1328
     39 F         143.8615  140.3982  165.3107 F       1  UNL1       -0.1328
@<TRIPOS>BOND
     1    20    21    1
     2    21    22    1
     3    21    23    1
     4    21    19    1
     5    19    11    1
     6    11    12    2
     7    11    13   am
     8    13    14    1
     9    14    15    1
    10    15    16    1
    11    16     1    1
    12     1     2   am
    13     2     3    2
    14     2     4    1
    15     4     5   ar
    16     5     6   ar
    17     6     7   ar
    18     7     8   ar
    19     8     9   ar
    20     9    10    1
    21    10    24    1
    22    24    25    2
    23    24    26   am
    24    26    28    1
    25    28    29    1
    26    29    30   ar
    27    30    31   ar
    28    31    32   ar
    29    32    35    1
    30    35    36    1
    31    36    37    1
    32    36    38    1
    33    36    39    1
    34    32    33   ar
    35    33    34   ar
    36    16    17    1
    37    17    18    1
    38    18    13    1
    39    10     1    1
    40    34    29   ar
    41     9     4   ar
    42    26    27    1
@<TRIPOS>MOLECULE
*****
 39 42 0 0 0
SMALL
GASTEIGER

@<TRIPOS>ATOM
      1 N         141.8515  139.4166  165.4791 N.am    1  UNL1       -0.2677
      2 C         142.7120  139.0482  166.6512 C.2     1  UNL1        0.2493
      3 O         144.0664  138.4071  166.5837 O.2     1  UNL1       -0.2699
      4 C         141.9803  139.4335  167.9027 C.ar    1  UNL1        0.0516
      5 C         142.3398  139.3104  169.3538 C.ar    1  UNL1        0.0043
      6 C         141.3866  139.7938  170.4062 C.ar    1  UNL1        0.0001
      7 C         140.0739  140.4003  170.0075 C.ar    1  UNL1       -0.0003
      8 C         139.7144  140.5234  168.5565 C.ar    1  UNL1       -0.0021
      9 C         140.6676  140.0400  167.5041 C.ar    1  UNL1        0.0089
     10 C         140.5880  140.0296  166.0062 C.3     1  UNL1        0.1751
     11 C         143.2228  138.5845  159.6975 C.2     1  UNL1        0.4046
     12 O         144.1923  139.5046  159.0167 O.2     1  UNL1       -0.2262
     13 N         142.8800  138.7926  161.1429 N.am    1  UNL1       -0.2459
     14 C         141.9105  137.8725  161.8237 C.3     1  UNL1        0.0984
     15 C         141.5677  138.0805  163.2691 C.3     1  UNL1        0.0415
     16 C         142.1943  139.2086  164.0337 C.3     1  UNL1        0.0797
     17 C         143.1638  140.1287  163.3529 C.3     1  UNL1        0.0415
     18 C         143.5066  139.9207  161.9075 C.3     1  UNL1        0.0984
     19 O         142.5961  137.4565  158.9329 O.3     1  UNL1       -0.4418
     20 C         140.8779  138.5336  158.3103 C.3     1  UNL1        0.0437
     21 C         141.9306  137.7221  157.6151 C.3     1  UNL1        0.1378
     22 C         142.9833  136.9106  156.9199 C.3     1  UNL1        0.0437
     23 C         141.2652  137.9877  156.2973 C.3     1  UNL1        0.0437
     24 C         139.4455  140.5421  165.1805 C.2     1  UNL1        0.2451
     25 O         138.0859  139.9231  165.3150 O.2     1  UNL1       -0.2729
     26 N         139.6626  141.6738  164.2201 N.am    1  UNL1       -0.2988
     27 H         140.5550  142.0802  164.1318 H       1  UNL1        0.1498
     28 C         138.5200  142.1864  163.3943 C.3     1  UNL1        0.1164
     29 C         138.3136  141.6741  161.9998 C.ar    1  UNL1       -0.0024
     30 C         138.6444  142.5452  160.8242 C.ar    1  UNL1        0.0005
     31 C         138.4380  142.0329  159.4295 C.ar    1  UNL1        0.0369
     32 C         137.9008  140.6497  159.2104 C.ar    1  UNL1        0.1468
     33 C         137.5700  139.7787  160.3860 C.ar    1  UNL1        0.0369
     34 C         137.7764  140.2909  161.7807 C.ar    1  UNL1        0.0005
     35 O         137.6944  140.1374  157.8158 O.3     1  UNL1       -0.4045
     36 C         137.7385  141.0856  156.6544 C.3     1  UNL1        0.5753
     37 F         137.7826  142.0338  155.4929 F       1  UNL1       -0.1328
     38 F         136.2967  141.4312  156.8818 F       1  UNL1       -0.1328
     39 F         139.1803  140.7400  156.4270 F       1  UNL1       -0.1328
@<TRIPOS>BOND
     1    20    21    1
     2    21    22    1
     3    21    23    1
     4    21    19    1
     5    19    11    1
     6    11    12    2
     7    11    13   am
     8    13    14    1
     9    14    15    1
    10    15    16    1
    11    16     1    1
    12     1     2   am
    13     2     3    2
    14     2     4    1
    15     4     5   ar
    16     5     6   ar
    17     6     7   ar
    18     7     8   ar
    19     8     9   ar
    20     9    10    1
    21    10    24    1
    22    24    25    2
    23    24    26   am
    24    26    28    1
    25    28    29    1
    26    29    30   ar
    27    30    31   ar
    28    31    32   ar
    29    32    35    1
    30    35    36    1
    31    36    37    1
    32    36    38    1
    33    36    39    1
    34    32    33   ar
    35    33    34   ar
    36    16    17    1
    37    17    18    1
    38    18    13    1
    39    10     1    1
    40    34    29   ar
    41     9     4   ar
    42    26    27    1
@<TRIPOS>MOLECULE
*****
 39 42 0 0 0
SMALL
GASTEIGER

@<TRIPOS>ATOM
      1 N         140.3424  142.7547  158.2856 N.am    1  UNL1       -0.2677
      2 C         139.8953  142.6288  156.8593 C.2     1  UNL1        0.2493
      3 O         139.7140  141.3467  156.1020 O.2     1  UNL1       -0.2699
      4 C         139.6615  144.0101  156.3231 C.ar    1  UNL1        0.0516
      5 C         139.2122  144.5024  154.9794 C.ar    1  UNL1        0.0043
      6 C         139.0654  145.9742  154.7306 C.ar    1  UNL1        0.0001
      7 C         139.3679  146.9538  155.8255 C.ar    1  UNL1       -0.0003
      8 C         139.8172  146.4615  157.1693 C.ar    1  UNL1       -0.0021
      9 C         139.9640  144.9896  157.4181 C.ar    1  UNL1        0.0089
     10 C         140.3848  144.2138  158.6309 C.3     1  UNL1        0.1751
     11 C         141.7191  138.2185  161.9635 C.2     1  UNL1        0.4046
     12 O         143.1207  138.0671  162.4757 O.2     1  UNL1       -0.2262
     13 N         141.3749  139.3525  161.0440 N.am    1  UNL1       -0.2459
     14 C         139.9732  139.5039  160.5318 C.3     1  UNL1        0.0984
     15 C         139.6291  140.6379  159.6123 C.3     1  UNL1        0.0415
     16 C         140.6865  141.6206  159.2051 C.3     1  UNL1        0.0797
     17 C         142.0882  141.4693  159.7173 C.3     1  UNL1        0.0415
     18 C         142.4324  140.3353  160.6368 C.3     1  UNL1        0.0984
     19 O         140.6616  137.2357  162.3708 O.3     1  UNL1       -0.4418
     20 C         141.1174  137.1511  164.4409 C.3     1  UNL1        0.0437
     21 C         139.8866  137.4497  163.6372 C.3     1  UNL1        0.1378
     22 C         138.6558  137.7484  162.8335 C.3     1  UNL1        0.0437
     23 C         139.1116  137.6637  164.9035 C.3     1  UNL1        0.0437
     24 C         140.7788  144.7950  159.9564 C.2     1  UNL1        0.2451
     25 O         142.2292  144.9498  160.3061 O.2     1  UNL1       -0.2729
     26 N         139.7224  145.2215  160.9322 N.am    1  UNL1       -0.2988
     27 H         138.7704  145.1199  160.7027 H       1  UNL1        0.1498
     28 C         140.1164  145.8027  162.2577 C.3     1  UNL1        0.1164
     29 C         140.3611  144.8992  163.4298 C.ar    1  UNL1       -0.0024
     30 C         141.6847  144.2100  163.5820 C.ar    1  UNL1        0.0005
     31 C         141.9294  143.3064  164.7542 C.ar    1  UNL1        0.0369
     32 C         140.8506  143.0922  165.7740 C.ar    1  UNL1        0.1468
     33 C         139.5270  143.7814  165.6218 C.ar    1  UNL1        0.0369
     34 C         139.2822  144.6849  164.4497 C.ar    1  UNL1        0.0005
     35 O         141.0952  142.1887  166.9461 O.3     1  UNL1       -0.4045
     36 C         140.1724  141.0359  167.2098 C.3     1  UNL1        0.5753
     37 F         139.2497  139.8831  167.4735 F       1  UNL1       -0.1328
     38 F         140.5458  140.4345  165.8873 F       1  UNL1       -0.1328
     39 F         139.7991  141.6372  168.5323 F       1  UNL1       -0.1328
@<TRIPOS>BOND
     1    20    21    1
     2    21    22    1
     3    21    23    1
     4    21    19    1
     5    19    11    1
     6    11    12    2
     7    11    13   am
     8    13    14    1
     9    14    15    1
    10    15    16    1
    11    16     1    1
    12     1     2   am
    13     2     3    2
    14     2     4    1
    15     4     5   ar
    16     5     6   ar
    17     6     7   ar
    18     7     8   ar
    19     8     9   ar
    20     9    10    1
    21    10    24    1
    22    24    25    2
    23    24    26   am
    24    26    28    1
    25    28    29    1
    26    29    30   ar
    27    30    31   ar
    28    31    32   ar
    29    32    35    1
    30    35    36    1
    31    36    37    1
    32    36    38    1
    33    36    39    1
    34    32    33   ar
    35    33    34   ar
    36    16    17    1
    37    17    18    1
    38    18    13    1
    39    10     1    1
    40    34    29   ar
    41     9     4   ar
    42    26    27    1
@<TRIPOS>MOLECULE
*****
 39 42 0 0 0
SMALL
GASTEIGER

@<TRIPOS>ATOM
      1 N         143.3687  140.3116  158.6891 N.am    1  UNL1       -0.2677
      2 C         143.8808  139.6266  157.4569 C.2     1  UNL1        0.2493
      3 O         143.3978  138.3152  156.9118 O.2     1  UNL1       -0.2699
      4 C         144.9608  140.4831  156.8653 C.ar    1  UNL1        0.0516
      5 C         145.8229  140.3141  155.6494 C.ar    1  UNL1        0.0043
      6 C         146.8402  141.3596  155.3002 C.ar    1  UNL1        0.0001
      7 C         146.9955  142.5740  156.1669 C.ar    1  UNL1       -0.0003
      8 C         146.1335  142.7430  157.3827 C.ar    1  UNL1       -0.0021
      9 C         145.1161  141.6975  157.7319 C.ar    1  UNL1        0.0089
     10 C         144.1321  141.5915  158.8591 C.3     1  UNL1        0.1751
     11 C         139.0283  138.2874  162.3035 C.2     1  UNL1        0.4046
     12 O         137.6156  138.2053  161.8060 O.2     1  UNL1       -0.2262
     13 N         140.1134  138.7935  161.3999 N.am    1  UNL1       -0.2459
     14 C         141.5261  138.8756  161.8973 C.3     1  UNL1        0.0984
     15 C         142.6112  139.3817  160.9937 C.3     1  UNL1        0.0415
     16 C         142.2836  139.8055  159.5927 C.3     1  UNL1        0.0797
     17 C         140.8709  139.7234  159.0952 C.3     1  UNL1        0.0415
     18 C         139.7858  139.2173  159.9988 C.3     1  UNL1        0.0984
     19 O         139.3559  137.8635  163.7045 O.3     1  UNL1       -0.4418
     20 C         138.5650  137.2427  165.5724 C.3     1  UNL1        0.0437
     21 C         138.7133  138.5587  164.8681 C.3     1  UNL1        0.1378
     22 C         138.8615  139.8747  164.1637 C.3     1  UNL1        0.0437
     23 C         138.0707  139.2539  166.0316 C.3     1  UNL1        0.0437
     24 C         143.9446  142.5901  159.9625 C.2     1  UNL1        0.2451
     25 O         143.0389  143.7687  159.7615 O.2     1  UNL1       -0.2729
     26 N         144.6628  142.4101  161.2671 N.am    1  UNL1       -0.2988
     27 H         145.2573  141.6366  161.3991 H       1  UNL1        0.1498
     28 C         144.4752  143.4088  162.3705 C.3     1  UNL1        0.1164
     29 C         143.7733  143.0074  163.6339 C.ar    1  UNL1       -0.0024
     30 C         144.4742  143.1345  164.9540 C.ar    1  UNL1        0.0005
     31 C         143.7723  142.7331  166.2175 C.ar    1  UNL1        0.0369
     32 C         142.3696  142.2046  166.1609 C.ar    1  UNL1        0.1468
     33 C         141.6688  142.0775  164.8407 C.ar    1  UNL1        0.0369
     34 C         142.3707  142.4789  163.5773 C.ar    1  UNL1        0.0005
     35 O         141.6677  141.8032  167.4243 O.3     1  UNL1       -0.4045
     36 C         141.1962  142.8531  168.3862 C.3     1  UNL1        0.5753
     37 F         140.7246  143.9030  169.3482 F       1  UNL1       -0.1328
     38 F         140.0001  143.1108  167.5185 F       1  UNL1       -0.1328
     39 F         142.3923  142.5953  169.2539 F       1  UNL1       -0.1328
@<TRIPOS>BOND
     1    20    21    1
     2    21    22    1
     3    21    23    1
     4    21    19    1
     5    19    11    1
     6    11    12    2
     7    11    13   am
     8    13    14    1
     9    14    15    1
    10    15    16    1
    11    16     1    1
    12     1     2   am
    13     2     3    2
    14     2     4    1
    15     4     5   ar
    16     5     6   ar
    17     6     7   ar
    18     7     8   ar
    19     8     9   ar
    20     9    10    1
    21    10    24    1
    22    24    25    2
    23    24    26   am
    24    26    28    1
    25    28    29    1
    26    29    30   ar
    27    30    31   ar
    28    31    32   ar
    29    32    35    1
    30    35    36    1
    31    36    37    1
    32    36    38    1
    33    36    39    1
    34    32    33   ar
    35    33    34   ar
    36    16    17    1
    37    17    18    1
    38    18    13    1
    39    10     1    1
    40    34    29   ar
    41     9     4   ar
    42    26    27    1
