@<TRIPOS>MOLECULE
*****
 29 33 0 0 0
SMALL
GASTEIGER

@<TRIPOS>ATOM
      1 C         141.2494  139.1187  165.2203 C.ar    1  UNL1        0.0681
      2 C         140.2985  137.9819  164.9891 C.ar    1  UNL1        0.0208
      3 C         140.0321  137.4987  163.5943 C.ar    1  UNL1        0.0384
      4 C         140.7166  138.1524  162.4307 C.ar    1  UNL1        0.1385
      5 C         141.6674  139.2892  162.6618 C.ar    1  UNL1        0.0384
      6 C         141.9339  139.7724  164.0566 C.ar    1  UNL1        0.0208
      7 C         143.6519  138.1265  166.7181 C.3     1  UNL1        0.0723
      8 C         142.7171  139.1058  167.3641 C.ar    1  UNL1        0.1268
      9 N         142.9835  139.5889  168.7589 N.ar    1  UNL1       -0.2303
     10 C         142.0487  140.5681  169.4049 C.ar    1  UNL1        0.1063
     11 C         142.3151  141.0512  170.7997 C.ar    1  UNL1        0.1181
     12 N         141.3803  142.0304  171.4456 N.ar    1  UNL1       -0.2407
     13 C         140.1791  142.5265  170.6967 C.ar    1  UNL1        0.0991
     14 C         139.9126  142.0434  169.3019 C.ar    1  UNL1        0.0269
     15 C         140.8474  141.0642  168.6560 C.ar    1  UNL1        0.0773
     16 C         140.5810  140.5811  167.2611 C.ar    1  UNL1        0.2670
     17 O         139.3798  141.0772  166.5121 O.2     1  UNL1       -0.2665
     18 N         141.5158  139.6019  166.6152 N.ar    1  UNL1       -0.2626
     19 O         140.4501  137.6692  161.0358 O.3     1  UNL1       -0.4791
     20 C         139.6834  138.5312  160.0771 C.3     1  UNL1        0.1687
     21 C         138.4972  139.3144  160.5566 C.3     1  UNL1        0.0609
     22 C         137.7304  140.1764  159.5979 C.3     1  UNL1        0.0758
     23 N         138.1498  140.2552  158.1599 N.3     1  UNL1       -0.2737
     24 C         139.3359  139.4721  157.6805 C.3     1  UNL1        0.0758
     25 C         140.1027  138.6101  158.6391 C.3     1  UNL1        0.0609
     26 C         137.3830  141.1173  157.2012 C.3     1  UNL1        0.0575
     27 C         136.2279  140.8992  156.2694 C.3     1  UNL1        0.0160
     28 C         136.2986  142.3363  155.8455 C.3     1  UNL1        0.0028
     29 C         137.4536  142.5544  156.7773 C.3     1  UNL1        0.0160
@<TRIPOS>BOND
     1     7     8    1
     2     8     9   ar
     3     9    10   ar
     4    10    11   ar
     5    11    12   ar
     6    12    13   ar
     7    13    14   ar
     8    14    15   ar
     9    15    16   ar
    10    16    17    2
    11    16    18   ar
    12    18     1    1
    13     1     2   ar
    14     2     3   ar
    15     3     4   ar
    16     4    19    1
    17    19    20    1
    18    20    21    1
    19    21    22    1
    20    22    23    1
    21    23    26    1
    22    26    27    1
    23    27    28    1
    24    28    29    1
    25    23    24    1
    26    24    25    1
    27     4     5   ar
    28     5     6   ar
    29    18     8   ar
    30     6     1   ar
    31    15    10   ar
    32    25    20    1
    33    29    26    1
@<TRIPOS>MOLECULE
*****
 29 33 0 0 0
SMALL
GASTEIGER

@<TRIPOS>ATOM
      1 C         139.1934  140.7848  165.1383 C.ar    1  UNL1        0.0681
      2 C         140.0036  139.9793  164.1663 C.ar    1  UNL1        0.0208
      3 C         139.6315  139.9617  162.7133 C.ar    1  UNL1        0.0384
      4 C         138.4491  140.7495  162.2324 C.ar    1  UNL1        0.1385
      5 C         137.6389  141.5549  163.2044 C.ar    1  UNL1        0.0384
      6 C         138.0111  141.5726  164.6574 C.ar    1  UNL1        0.0208
      7 C         138.0191  138.7576  167.0122 C.3     1  UNL1        0.0723
      8 C         138.9784  139.7888  167.5283 C.ar    1  UNL1        0.1268
      9 N         139.3506  139.8063  168.9813 N.ar    1  UNL1       -0.2303
     10 C         140.3100  140.8375  169.4974 C.ar    1  UNL1        0.1063
     11 C         140.6821  140.8551  170.9503 C.ar    1  UNL1        0.1181
     12 N         141.6415  141.8862  171.4663 N.ar    1  UNL1       -0.2407
     13 C         142.2287  142.8998  170.5294 C.ar    1  UNL1        0.0991
     14 C         141.8565  142.8823  169.0765 C.ar    1  UNL1        0.0269
     15 C         140.8972  141.8511  168.5604 C.ar    1  UNL1        0.0773
     16 C         140.5250  141.8335  167.1074 C.ar    1  UNL1        0.2670
     17 O         141.1121  142.8471  166.1705 O.2     1  UNL1       -0.2665
     18 N         139.5656  140.8024  166.5914 N.ar    1  UNL1       -0.2626
     19 O         138.0769  140.7319  160.7794 O.3     1  UNL1       -0.4791
     20 C         138.5659  141.8172  159.8667 C.3     1  UNL1        0.1687
     21 C         138.1530  141.8272  158.4246 C.3     1  UNL1        0.0609
     22 C         138.6420  142.9125  157.5120 C.3     1  UNL1        0.0758
     23 N         139.5439  143.9879  158.0414 N.3     1  UNL1       -0.2737
     24 C         139.9568  143.9779  159.4834 C.3     1  UNL1        0.0758
     25 C         139.4678  142.8926  160.3961 C.3     1  UNL1        0.0609
     26 C         140.0330  145.0732  157.1288 C.3     1  UNL1        0.0575
     27 C         139.4658  145.7992  155.9449 C.3     1  UNL1        0.0160
     28 C         140.7245  146.6081  155.8381 C.3     1  UNL1        0.0028
     29 C         141.2916  145.8821  157.0218 C.3     1  UNL1        0.0160
@<TRIPOS>BOND
     1     7     8    1
     2     8     9   ar
     3     9    10   ar
     4    10    11   ar
     5    11    12   ar
     6    12    13   ar
     7    13    14   ar
     8    14    15   ar
     9    15    16   ar
    10    16    17    2
    11    16    18   ar
    12    18     1    1
    13     1     2   ar
    14     2     3   ar
    15     3     4   ar
    16     4    19    1
    17    19    20    1
    18    20    21    1
    19    21    22    1
    20    22    23    1
    21    23    26    1
    22    26    27    1
    23    27    28    1
    24    28    29    1
    25    23    24    1
    26    24    25    1
    27     4     5   ar
    28     5     6   ar
    29    18     8   ar
    30     6     1   ar
    31    15    10   ar
    32    25    20    1
    33    29    26    1
@<TRIPOS>MOLECULE
*****
 29 33 0 0 0
SMALL
GASTEIGER

@<TRIPOS>ATOM
      1 C         140.6107  139.3253  165.2077 C.ar    1  UNL1        0.0681
      2 C         140.0290  140.1283  164.0822 C.ar    1  UNL1        0.0208
      3 C         140.1265  139.6245  162.6728 C.ar    1  UNL1        0.0384
      4 C         140.8057  138.3176  162.3888 C.ar    1  UNL1        0.1385
      5 C         141.3874  137.5146  163.5143 C.ar    1  UNL1        0.0384
      6 C         141.2900  138.0184  164.9237 C.ar    1  UNL1        0.0208
      7 C         138.1570  138.7570  166.8374 C.3     1  UNL1        0.0723
      8 C         139.2864  139.5450  167.4321 C.ar    1  UNL1        0.1268
      9 N         139.1888  140.0489  168.8415 N.ar    1  UNL1       -0.2303
     10 C         140.3182  140.8369  169.4362 C.ar    1  UNL1        0.1063
     11 C         140.2207  141.3408  170.8456 C.ar    1  UNL1        0.1181
     12 N         141.3500  142.1288  171.4402 N.ar    1  UNL1       -0.2407
     13 C         142.5769  142.4129  170.6253 C.ar    1  UNL1        0.0991
     14 C         142.6745  141.9090  169.2159 C.ar    1  UNL1        0.0269
     15 C         141.5451  141.1211  168.6213 C.ar    1  UNL1        0.0773
     16 C         141.6426  140.6172  167.2118 C.ar    1  UNL1        0.2670
     17 O         142.8695  140.9013  166.3969 O.2     1  UNL1       -0.2665
     18 N         140.5133  139.8292  166.6172 N.ar    1  UNL1       -0.2626
     19 O         140.9032  137.8137  160.9793 O.3     1  UNL1       -0.4791
     20 C         141.8467  138.4664  160.0130 C.3     1  UNL1        0.1687
     21 C         142.9436  139.3551  160.5202 C.3     1  UNL1        0.0609
     22 C         143.8872  140.0078  159.5540 C.3     1  UNL1        0.0758
     23 N         143.7338  139.7719  158.0805 N.3     1  UNL1       -0.2737
     24 C         142.6369  138.8833  157.5734 C.3     1  UNL1        0.0758
     25 C         141.6934  138.2306  158.5397 C.3     1  UNL1        0.0609
     26 C         144.6774  140.4247  157.1143 C.3     1  UNL1        0.0575
     27 C         145.4453  141.7130  157.0879 C.3     1  UNL1        0.0160
     28 C         146.0117  141.3478  155.7478 C.3     1  UNL1        0.0028
     29 C         145.2438  140.0597  155.7742 C.3     1  UNL1        0.0160
@<TRIPOS>BOND
     1     7     8    1
     2     8     9   ar
     3     9    10   ar
     4    10    11   ar
     5    11    12   ar
     6    12    13   ar
     7    13    14   ar
     8    14    15   ar
     9    15    16   ar
    10    16    17    2
    11    16    18   ar
    12    18     1    1
    13     1     2   ar
    14     2     3   ar
    15     3     4   ar
    16     4    19    1
    17    19    20    1
    18    20    21    1
    19    21    22    1
    20    22    23    1
    21    23    26    1
    22    26    27    1
    23    27    28    1
    24    28    29    1
    25    23    24    1
    26    24    25    1
    27     4     5   ar
    28     5     6   ar
    29    18     8   ar
    30     6     1   ar
    31    15    10   ar
    32    25    20    1
    33    29    26    1
@<TRIPOS>MOLECULE
*****
 29 33 0 0 0
SMALL
GASTEIGER

@<TRIPOS>ATOM
      1 C         139.6012  140.7924  164.7429 C.ar    1  UNL1        0.0681
      2 C         140.5893  140.0600  163.8843 C.ar    1  UNL1        0.0208
      3 C         140.5112  140.1699  162.3904 C.ar    1  UNL1        0.0384
      4 C         139.4451  141.0122  161.7551 C.ar    1  UNL1        0.1385
      5 C         138.4570  141.7447  162.6137 C.ar    1  UNL1        0.0384
      6 C         138.5350  141.6348  164.1076 C.ar    1  UNL1        0.0208
      7 C         138.0722  138.6421  166.1706 C.3     1  UNL1        0.0723
      8 C         138.9148  139.6073  166.9507 C.ar    1  UNL1        0.1268
      9 N         138.9928  139.4974  168.4446 N.ar    1  UNL1       -0.2303
     10 C         139.8354  140.4626  169.2247 C.ar    1  UNL1        0.1063
     11 C         139.9135  140.3526  170.7186 C.ar    1  UNL1        0.1181
     12 N         140.7560  141.3178  171.4987 N.ar    1  UNL1       -0.2407
     13 C         141.5205  142.3929  170.7848 C.ar    1  UNL1        0.0991
     14 C         141.4425  142.5029  169.2909 C.ar    1  UNL1        0.0269
     15 C         140.5999  141.5377  168.5109 C.ar    1  UNL1        0.0773
     16 C         140.5218  141.6477  167.0169 C.ar    1  UNL1        0.2670
     17 O         141.2863  142.7228  166.3030 O.2     1  UNL1       -0.2665
     18 N         139.6793  140.6825  166.2369 N.ar    1  UNL1       -0.2626
     19 O         139.3670  141.1222  160.2611 O.3     1  UNL1       -0.4791
     20 C         140.2279  140.2475  159.3987 C.3     1  UNL1        0.1687
     21 C         139.6725  138.9753  158.8301 C.3     1  UNL1        0.0609
     22 C         140.5334  138.1006  157.9677 C.3     1  UNL1        0.0758
     23 N         141.9497  138.4980  157.6739 N.3     1  UNL1       -0.2737
     24 C         142.5050  139.7701  158.2425 C.3     1  UNL1        0.0758
     25 C         141.6441  140.6448  159.1049 C.3     1  UNL1        0.0609
     26 C         142.8106  137.6233  156.8116 C.3     1  UNL1        0.0575
     27 C         143.7373  137.8565  155.6553 C.3     1  UNL1        0.0160
     28 C         144.0281  136.3863  155.5920 C.3     1  UNL1        0.0028
     29 C         143.1015  136.1532  156.7482 C.3     1  UNL1        0.0160
@<TRIPOS>BOND
     1     7     8    1
     2     8     9   ar
     3     9    10   ar
     4    10    11   ar
     5    11    12   ar
     6    12    13   ar
     7    13    14   ar
     8    14    15   ar
     9    15    16   ar
    10    16    17    2
    11    16    18   ar
    12    18     1    1
    13     1     2   ar
    14     2     3   ar
    15     3     4   ar
    16     4    19    1
    17    19    20    1
    18    20    21    1
    19    21    22    1
    20    22    23    1
    21    23    26    1
    22    26    27    1
    23    27    28    1
    24    28    29    1
    25    23    24    1
    26    24    25    1
    27     4     5   ar
    28     5     6   ar
    29    18     8   ar
    30     6     1   ar
    31    15    10   ar
    32    25    20    1
    33    29    26    1
@<TRIPOS>MOLECULE
*****
 29 33 0 0 0
SMALL
GASTEIGER

@<TRIPOS>ATOM
      1 C         141.2711  140.3004  164.8127 C.ar    1  UNL1        0.0681
      2 C         140.2573  139.3509  164.2463 C.ar    1  UNL1        0.0208
      3 C         139.9547  139.3654  162.7773 C.ar    1  UNL1        0.0384
      4 C         140.6659  140.3293  161.8745 C.ar    1  UNL1        0.1385
      5 C         141.6797  141.2788  162.4409 C.ar    1  UNL1        0.0384
      6 C         141.9823  141.2644  163.9099 C.ar    1  UNL1        0.0208
      7 C         143.3800  138.4596  165.8916 C.3     1  UNL1        0.0723
      8 C         142.6281  139.3655  166.8213 C.ar    1  UNL1        0.1268
      9 N         142.9307  139.3510  168.2904 N.ar    1  UNL1       -0.2303
     10 C         142.1789  140.2568  169.2200 C.ar    1  UNL1        0.1063
     11 C         142.4815  140.2423  170.6891 C.ar    1  UNL1        0.1181
     12 N         141.7296  141.1481  171.6186 N.ar    1  UNL1       -0.2407
     13 C         140.6752  142.0685  171.0791 C.ar    1  UNL1        0.0991
     14 C         140.3726  142.0830  169.6101 C.ar    1  UNL1        0.0269
     15 C         141.1244  141.1772  168.6805 C.ar    1  UNL1        0.0773
     16 C         140.8218  141.1917  167.2114 C.ar    1  UNL1        0.2670
     17 O         139.7674  142.1121  166.6719 O.2     1  UNL1       -0.2665
     18 N         141.5737  140.2859  166.2818 N.ar    1  UNL1       -0.2626
     19 O         140.3633  140.3439  160.4054 O.3     1  UNL1       -0.4791
     20 C         140.9922  139.3265  159.5001 C.3     1  UNL1        0.1687
     21 C         140.3804  139.0331  158.1622 C.3     1  UNL1        0.0609
     22 C         141.0093  138.0158  157.2569 C.3     1  UNL1        0.0758
     23 N         142.2498  137.2918  157.6895 N.3     1  UNL1       -0.2737
     24 C         142.8615  137.5853  159.0273 C.3     1  UNL1        0.0758
     25 C         142.2326  138.6026  159.9326 C.3     1  UNL1        0.0609
     26 C         142.8787  136.2745  156.7842 C.3     1  UNL1        0.0575
     27 C         143.6972  136.3339  155.5285 C.3     1  UNL1        0.0160
     28 C         143.7680  134.8358  155.5039 C.3     1  UNL1        0.0028
     29 C         142.9495  134.7764  156.7594 C.3     1  UNL1        0.0160
@<TRIPOS>BOND
     1     7     8    1
     2     8     9   ar
     3     9    10   ar
     4    10    11   ar
     5    11    12   ar
     6    12    13   ar
     7    13    14   ar
     8    14    15   ar
     9    15    16   ar
    10    16    17    2
    11    16    18   ar
    12    18     1    1
    13     1     2   ar
    14     2     3   ar
    15     3     4   ar
    16     4    19    1
    17    19    20    1
    18    20    21    1
    19    21    22    1
    20    22    23    1
    21    23    26    1
    22    26    27    1
    23    27    28    1
    24    28    29    1
    25    23    24    1
    26    24    25    1
    27     4     5   ar
    28     5     6   ar
    29    18     8   ar
    30     6     1   ar
    31    15    10   ar
    32    25    20    1
    33    29    26    1
@<TRIPOS>MOLECULE
*****
 29 33 0 0 0
SMALL
GASTEIGER

@<TRIPOS>ATOM
      1 C         142.1567  138.7913  159.5995 C.ar    1  UNL1        0.0681
      2 C         140.7208  139.2234  159.6365 C.ar    1  UNL1        0.0208
      3 C         139.8492  138.8315  160.7927 C.ar    1  UNL1        0.0384
      4 C         140.4136  138.0074  161.9117 C.ar    1  UNL1        0.1385
      5 C         141.8495  137.5753  161.8747 C.ar    1  UNL1        0.0384
      6 C         142.7211  137.9672  160.7185 C.ar    1  UNL1        0.0208
      7 C         142.2200  137.0948  157.1260 C.3     1  UNL1        0.0723
      8 C         143.0599  138.3350  157.2065 C.ar    1  UNL1        0.1268
      9 N         143.9314  138.7269  156.0503 N.ar    1  UNL1       -0.2303
     10 C         144.7714  139.9672  156.1308 C.ar    1  UNL1        0.1063
     11 C         145.6429  140.3591  154.9746 C.ar    1  UNL1        0.1181
     12 N         146.4828  141.5992  155.0552 N.ar    1  UNL1       -0.2407
     13 C         146.4512  142.4475  156.2919 C.ar    1  UNL1        0.0991
     14 C         145.5797  142.0556  157.4481 C.ar    1  UNL1        0.0269
     15 C         144.7398  140.8154  157.3675 C.ar    1  UNL1        0.0773
     16 C         143.8682  140.4234  158.5238 C.ar    1  UNL1        0.2670
     17 O         143.8366  141.2716  159.7605 O.2     1  UNL1       -0.2665
     18 N         143.0283  139.1833  158.4432 N.ar    1  UNL1       -0.2626
     19 O         139.5420  137.6154  163.0680 O.3     1  UNL1       -0.4791
     20 C         139.6101  138.3856  164.3533 C.3     1  UNL1        0.1687
     21 C         138.4996  138.2721  165.3554 C.3     1  UNL1        0.0609
     22 C         138.5676  139.0422  166.6407 C.3     1  UNL1        0.0758
     23 N         139.7461  139.9259  166.9241 N.3     1  UNL1       -0.2737
     24 C         140.8565  140.0395  165.9221 C.3     1  UNL1        0.0758
     25 C         140.7885  139.2693  164.6367 C.3     1  UNL1        0.0609
     26 C         139.8141  140.6961  168.2095 C.3     1  UNL1        0.0575
     27 C         140.3748  142.0251  168.6213 C.3     1  UNL1        0.0160
     28 C         139.9103  141.7853  170.0273 C.3     1  UNL1        0.0028
     29 C         139.3497  140.4565  169.6155 C.3     1  UNL1        0.0160
@<TRIPOS>BOND
     1     7     8    1
     2     8     9   ar
     3     9    10   ar
     4    10    11   ar
     5    11    12   ar
     6    12    13   ar
     7    13    14   ar
     8    14    15   ar
     9    15    16   ar
    10    16    17    2
    11    16    18   ar
    12    18     1    1
    13     1     2   ar
    14     2     3   ar
    15     3     4   ar
    16     4    19    1
    17    19    20    1
    18    20    21    1
    19    21    22    1
    20    22    23    1
    21    23    26    1
    22    26    27    1
    23    27    28    1
    24    28    29    1
    25    23    24    1
    26    24    25    1
    27     4     5   ar
    28     5     6   ar
    29    18     8   ar
    30     6     1   ar
    31    15    10   ar
    32    25    20    1
    33    29    26    1
@<TRIPOS>MOLECULE
*****
 29 33 0 0 0
SMALL
GASTEIGER

@<TRIPOS>ATOM
      1 C         142.0804  138.5900  159.9636 C.ar    1  UNL1        0.0681
      2 C         143.2097  139.5771  159.9467 C.ar    1  UNL1        0.0208
      3 C         144.0144  139.8174  161.1894 C.ar    1  UNL1        0.0384
      4 C         143.6900  139.0705  162.4491 C.ar    1  UNL1        0.1385
      5 C         142.5607  138.0833  162.4660 C.ar    1  UNL1        0.0384
      6 C         141.7559  137.8431  161.2232 C.ar    1  UNL1        0.0208
      7 C         139.3890  139.8770  159.6472 C.3     1  UNL1        0.0723
      8 C         139.9299  138.9932  158.5625 C.ar    1  UNL1        0.1268
      9 N         139.1251  138.7530  157.3198 N.ar    1  UNL1       -0.2303
     10 C         139.6659  137.8693  156.2351 C.ar    1  UNL1        0.1063
     11 C         138.8611  137.6291  154.9923 C.ar    1  UNL1        0.1181
     12 N         139.4020  136.7453  153.9077 N.ar    1  UNL1       -0.2407
     13 C         140.7477  136.1018  154.0658 C.ar    1  UNL1        0.0991
     14 C         141.5525  136.3420  155.3086 C.ar    1  UNL1        0.0269
     15 C         141.0116  137.2257  156.3932 C.ar    1  UNL1        0.0773
     16 C         141.8164  137.4660  157.6361 C.ar    1  UNL1        0.2670
     17 O         143.1621  136.8225  157.7943 O.2     1  UNL1       -0.2665
     18 N         141.2756  138.3497  158.7207 N.ar    1  UNL1       -0.2626
     19 O         144.4948  139.3107  163.6920 O.3     1  UNL1       -0.4791
     20 C         143.8886  140.0524  164.8463 C.3     1  UNL1        0.1687
     21 C         143.9054  141.5522  164.8660 C.3     1  UNL1        0.0609
     22 C         143.2992  142.2939  166.0204 C.3     1  UNL1        0.0758
     23 N         142.6763  141.5358  167.1550 N.3     1  UNL1       -0.2737
     24 C         142.6595  140.0360  167.1352 C.3     1  UNL1        0.0758
     25 C         143.2657  139.2943  165.9808 C.3     1  UNL1        0.0609
     26 C         142.0701  142.2774  168.3093 C.3     1  UNL1        0.0575
     27 C         140.7285  142.8861  168.5921 C.3     1  UNL1        0.0160
     28 C         141.2128  143.3263  169.9417 C.3     1  UNL1        0.0028
     29 C         142.5542  142.7177  169.6590 C.3     1  UNL1        0.0160
@<TRIPOS>BOND
     1     7     8    1
     2     8     9   ar
     3     9    10   ar
     4    10    11   ar
     5    11    12   ar
     6    12    13   ar
     7    13    14   ar
     8    14    15   ar
     9    15    16   ar
    10    16    17    2
    11    16    18   ar
    12    18     1    1
    13     1     2   ar
    14     2     3   ar
    15     3     4   ar
    16     4    19    1
    17    19    20    1
    18    20    21    1
    19    21    22    1
    20    22    23    1
    21    23    26    1
    22    26    27    1
    23    27    28    1
    24    28    29    1
    25    23    24    1
    26    24    25    1
    27     4     5   ar
    28     5     6   ar
    29    18     8   ar
    30     6     1   ar
    31    15    10   ar
    32    25    20    1
    33    29    26    1
@<TRIPOS>MOLECULE
*****
 29 33 0 0 0
SMALL
GASTEIGER

@<TRIPOS>ATOM
      1 C         140.2749  138.9338  160.4670 C.ar    1  UNL1        0.0681
      2 C         140.4282  140.3730  160.8609 C.ar    1  UNL1        0.0208
      3 C         139.7530  140.8882  162.0973 C.ar    1  UNL1        0.0384
      4 C         138.9245  139.9642  162.9397 C.ar    1  UNL1        0.1385
      5 C         138.7713  138.5249  162.5458 C.ar    1  UNL1        0.0384
      6 C         139.4465  138.0098  161.3094 C.ar    1  UNL1        0.0208
      7 C         143.0530  137.8134  160.6312 C.3     1  UNL1        0.0723
      8 C         142.3392  137.8585  159.3127 C.ar    1  UNL1        0.1268
      9 N         143.0145  137.3433  158.0763 N.ar    1  UNL1       -0.2303
     10 C         142.3007  137.3884  156.7577 C.ar    1  UNL1        0.1063
     11 C         142.9759  136.8732  155.5214 C.ar    1  UNL1        0.1181
     12 N         142.2622  136.9183  154.2029 N.ar    1  UNL1       -0.2407
     13 C         140.8731  137.4785  154.1208 C.ar    1  UNL1        0.0991
     14 C         140.1979  137.9936  155.3571 C.ar    1  UNL1        0.0269
     15 C         140.9116  137.9486  156.6756 C.ar    1  UNL1        0.0773
     16 C         140.2364  138.4637  157.9121 C.ar    1  UNL1        0.2670
     17 O         138.8474  139.0239  157.8299 O.2     1  UNL1       -0.2665
     18 N         140.9502  138.4187  159.2305 N.ar    1  UNL1       -0.2626
     19 O         138.2493  140.4793  164.1762 O.3     1  UNL1       -0.4791
     20 C         139.0716  140.9707  165.3304 C.3     1  UNL1        0.1687
     21 C         139.5079  140.0149  166.4011 C.3     1  UNL1        0.0609
     22 C         140.3302  140.5063  167.5554 C.3     1  UNL1        0.0758
     23 N         140.7163  141.9534  167.6390 N.3     1  UNL1       -0.2737
     24 C         140.2801  142.9090  166.5683 C.3     1  UNL1        0.0758
     25 C         139.4577  142.4177  165.4140 C.3     1  UNL1        0.0609
     26 C         141.5387  142.4447  168.7932 C.3     1  UNL1        0.0575
     27 C         142.9475  142.2274  169.2605 C.3     1  UNL1        0.0160
     28 C         142.7017  143.1396  170.4256 C.3     1  UNL1        0.0028
     29 C         141.2930  143.3569  169.9583 C.3     1  UNL1        0.0160
@<TRIPOS>BOND
     1     7     8    1
     2     8     9   ar
     3     9    10   ar
     4    10    11   ar
     5    11    12   ar
     6    12    13   ar
     7    13    14   ar
     8    14    15   ar
     9    15    16   ar
    10    16    17    2
    11    16    18   ar
    12    18     1    1
    13     1     2   ar
    14     2     3   ar
    15     3     4   ar
    16     4    19    1
    17    19    20    1
    18    20    21    1
    19    21    22    1
    20    22    23    1
    21    23    26    1
    22    26    27    1
    23    27    28    1
    24    28    29    1
    25    23    24    1
    26    24    25    1
    27     4     5   ar
    28     5     6   ar
    29    18     8   ar
    30     6     1   ar
    31    15    10   ar
    32    25    20    1
    33    29    26    1
@<TRIPOS>MOLECULE
*****
 29 33 0 0 0
SMALL
GASTEIGER

@<TRIPOS>ATOM
      1 C         140.8795  139.1440  164.9995 C.ar    1  UNL1        0.0681
      2 C         140.4030  137.7707  164.6291 C.ar    1  UNL1        0.0208
      3 C         139.9629  137.4831  163.2243 C.ar    1  UNL1        0.0384
      4 C         139.9994  138.5687  162.1898 C.ar    1  UNL1        0.1385
      5 C         140.4759  139.9419  162.5602 C.ar    1  UNL1        0.0384
      6 C         140.9159  140.2296  163.9650 C.ar    1  UNL1        0.0208
      7 C         143.6089  138.3036  165.9181 C.3     1  UNL1        0.0723
      8 C         142.6843  139.0114  166.8637 C.ar    1  UNL1        0.1268
      9 N         143.1244  139.2990  168.2685 N.ar    1  UNL1       -0.2303
     10 C         142.1997  140.0068  169.2141 C.ar    1  UNL1        0.1063
     11 C         142.6398  140.2944  170.6189 C.ar    1  UNL1        0.1181
     12 N         141.7151  141.0022  171.5645 N.ar    1  UNL1       -0.2407
     13 C         140.3504  141.4224  171.1052 C.ar    1  UNL1        0.0991
     14 C         139.9103  141.1348  169.7003 C.ar    1  UNL1        0.0269
     15 C         140.8350  140.4270  168.7548 C.ar    1  UNL1        0.0773
     16 C         140.3949  140.1394  167.3499 C.ar    1  UNL1        0.2670
     17 O         139.0302  140.5596  166.8906 O.2     1  UNL1       -0.2665
     18 N         141.3195  139.4316  166.4044 N.ar    1  UNL1       -0.2626
     19 O         139.5593  138.2811  160.7849 O.3     1  UNL1       -0.4791
     20 C         140.5405  138.3864  159.6553 C.3     1  UNL1        0.1687
     21 C         142.0122  138.4324  159.9419 C.3     1  UNL1        0.0609
     22 C         142.9934  138.5377  158.8123 C.3     1  UNL1        0.0758
     23 N         142.5029  138.5971  157.3959 N.3     1  UNL1       -0.2737
     24 C         141.0313  138.5512  157.1093 C.3     1  UNL1        0.0758
     25 C         140.0501  138.4458  158.2390 C.3     1  UNL1        0.0609
     26 C         143.4841  138.7025  156.2662 C.3     1  UNL1        0.0575
     27 C         144.0954  137.7331  155.2984 C.3     1  UNL1        0.0160
     28 C         144.8717  138.8514  154.6687 C.3     1  UNL1        0.0028
     29 C         144.2604  139.8207  155.6364 C.3     1  UNL1        0.0160
@<TRIPOS>BOND
     1     7     8    1
     2     8     9   ar
     3     9    10   ar
     4    10    11   ar
     5    11    12   ar
     6    12    13   ar
     7    13    14   ar
     8    14    15   ar
     9    15    16   ar
    10    16    17    2
    11    16    18   ar
    12    18     1    1
    13     1     2   ar
    14     2     3   ar
    15     3     4   ar
    16     4    19    1
    17    19    20    1
    18    20    21    1
    19    21    22    1
    20    22    23    1
    21    23    26    1
    22    26    27    1
    23    27    28    1
    24    28    29    1
    25    23    24    1
    26    24    25    1
    27     4     5   ar
    28     5     6   ar
    29    18     8   ar
    30     6     1   ar
    31    15    10   ar
    32    25    20    1
    33    29    26    1
