@<TRIPOS>MOLECULE
*****
 26 28 0 0 0
SMALL
GASTEIGER

@<TRIPOS>ATOM
      1 C         142.2040  141.9647  167.8377 C.ar    1  UNL1        0.1301
      2 N         143.0149  142.8167  168.7686 N.ar    1  UNL1       -0.1995
      3 C         142.6106  142.9504  170.2069 C.ar    1  UNL1        0.2145
      4 N         143.4215  143.8024  171.1378 N.pl3   1  UNL1       -0.3274
      5 N         141.3954  142.2321  170.7143 N.ar    1  UNL1       -0.2185
      6 C         140.5845  141.3801  169.7833 C.ar    1  UNL1        0.0639
      7 C         140.9888  141.2464  168.3451 C.ar    1  UNL1        0.0429
      8 C         140.1779  140.3945  167.4141 C.3     1  UNL1        0.1244
      9 N         138.9628  139.6762  167.9215 N.am    1  UNL1       -0.2710
     10 C         138.1519  138.8242  166.9906 C.2     1  UNL1        0.2553
     11 O         136.9367  138.1060  167.4979 O.2     1  UNL1       -0.2693
     12 C         138.5585  139.8099  169.3598 C.3     1  UNL1        0.1003
     13 C         139.3693  140.6619  170.2907 C.3     1  UNL1        0.0672
     14 H         144.2191  144.2738  170.8048 H       1  UNL1        0.1452
     15 H         143.1562  143.8901  172.0818 H       1  UNL1        0.1452
     16 C         138.5562  138.6905  165.5523 C.ar    1  UNL1        0.0830
     17 C         139.2488  137.5108  164.9371 C.ar    1  UNL1        0.0116
     18 C         139.4595  137.8042  163.4813 C.ar    1  UNL1        0.0076
     19 C         138.8971  139.1654  163.1966 C.ar    1  UNL1        0.0356
     20 S         138.3388  139.7131  164.4766 S.2     1  UNL1       -0.0819
     21 N         142.6083  141.8310  166.3994 N.pl3   1  UNL1       -0.3182
     22 H         143.1008  141.0334  166.0986 H       1  UNL1        0.1482
     23 C         142.2623  142.9126  165.4194 C.3     1  UNL1        0.0882
     24 C         140.8793  142.9887  164.8437 C.3     1  UNL1        0.0212
     25 C         138.9545  144.7220  165.0463 C.3     1  UNL1        0.0001
     26 C         139.7693  143.6104  165.6384 C.3     1  UNL1        0.0017
@<TRIPOS>BOND
     1    25    26    1
     2    26    24    1
     3    24    23    1
     4    23    21    1
     5    21     1    1
     6     1     2   ar
     7     2     3   ar
     8     3     4    1
     9     3     5   ar
    10     5     6   ar
    11     6     7   ar
    12     7     8    1
    13     8     9    1
    14     9    10   am
    15    10    11    2
    16    10    16    1
    17    16    17   ar
    18    17    18   ar
    19    18    19   ar
    20    19    20   ar
    21     9    12    1
    22    12    13    1
    23     7     1   ar
    24    20    16   ar
    25    13     6    1
    26    21    22    1
    27     4    14    1
    28     4    15    1
@<TRIPOS>MOLECULE
*****
 26 28 0 0 0
SMALL
GASTEIGER

@<TRIPOS>ATOM
      1 C         142.4552  141.8587  167.8041 C.ar    1  UNL1        0.1301
      2 N         143.2092  142.7204  168.7730 N.ar    1  UNL1       -0.1995
      3 C         142.6779  142.9313  170.1599 C.ar    1  UNL1        0.2145
      4 N         143.4319  143.7931  171.1289 N.pl3   1  UNL1       -0.3274
      5 N         141.3928  142.2804  170.5778 N.ar    1  UNL1       -0.2185
      6 C         140.6388  141.4186  169.6088 C.ar    1  UNL1        0.0639
      7 C         141.1700  141.2078  168.2219 C.ar    1  UNL1        0.0429
      8 C         140.4161  140.3460  167.2529 C.3     1  UNL1        0.1244
      9 N         139.1309  139.6951  167.6708 N.am    1  UNL1       -0.2710
     10 C         138.3769  138.8334  166.7018 C.2     1  UNL1        0.2553
     11 O         137.0917  138.1825  167.1197 O.2     1  UNL1       -0.2693
     12 C         138.5997  139.9060  169.0577 C.3     1  UNL1        0.1003
     13 C         139.3536  140.7677  170.0266 C.3     1  UNL1        0.0672
     14 H         144.2755  144.2203  170.8546 H       1  UNL1        0.1452
     15 H         143.0833  143.9315  172.0391 H       1  UNL1        0.1452
     16 C         138.9081  138.6225  165.3150 C.ar    1  UNL1        0.0830
     17 C         139.8322  137.5230  164.8825 C.ar    1  UNL1        0.0116
     18 C         140.1038  137.6951  163.4173 C.ar    1  UNL1        0.0076
     19 C         139.3475  138.9010  162.9443 C.ar    1  UNL1        0.0356
     20 S         138.6085  139.4742  164.1171 S.2     1  UNL1       -0.0819
     21 N         142.9865  141.6479  166.4172 N.pl3   1  UNL1       -0.3182
     22 H         143.4359  140.8032  166.1854 H       1  UNL1        0.1482
     23 C         142.8329  142.7239  165.3836 C.3     1  UNL1        0.0882
     24 C         144.0115  143.5684  164.9992 C.3     1  UNL1        0.0212
     25 C         142.4678  145.2566  163.7674 C.3     1  UNL1        0.0001
     26 C         143.8369  144.7067  164.0380 C.3     1  UNL1        0.0017
@<TRIPOS>BOND
     1    25    26    1
     2    26    24    1
     3    24    23    1
     4    23    21    1
     5    21     1    1
     6     1     2   ar
     7     2     3   ar
     8     3     4    1
     9     3     5   ar
    10     5     6   ar
    11     6     7   ar
    12     7     8    1
    13     8     9    1
    14     9    10   am
    15    10    11    2
    16    10    16    1
    17    16    17   ar
    18    17    18   ar
    19    18    19   ar
    20    19    20   ar
    21     9    12    1
    22    12    13    1
    23     7     1   ar
    24    20    16   ar
    25    13     6    1
    26    21    22    1
    27     4    14    1
    28     4    15    1
@<TRIPOS>MOLECULE
*****
 26 28 0 0 0
SMALL
GASTEIGER

@<TRIPOS>ATOM
      1 C         142.6047  141.8534  167.2069 C.ar    1  UNL1        0.1301
      2 N         143.5722  142.5616  168.1083 N.ar    1  UNL1       -0.1995
      3 C         143.3433  142.5762  169.5906 C.ar    1  UNL1        0.2145
      4 N         144.3109  143.2844  170.4920 N.pl3   1  UNL1       -0.3274
      5 N         142.1469  141.8826  170.1717 N.ar    1  UNL1       -0.2185
      6 C         141.1794  141.1744  169.2703 C.ar    1  UNL1        0.0639
      7 C         141.4083  141.1598  167.7879 C.ar    1  UNL1        0.0429
      8 C         140.4408  140.4517  166.8866 C.3     1  UNL1        0.1244
      9 N         139.2444  139.7582  167.4676 N.am    1  UNL1       -0.2710
     10 C         138.2768  139.0500  166.5663 C.2     1  UNL1        0.2553
     11 O         137.0805  138.3564  167.1473 O.2     1  UNL1       -0.2693
     12 C         139.0155  139.7728  168.9500 C.3     1  UNL1        0.1003
     13 C         139.9830  140.4809  169.8513 C.3     1  UNL1        0.0672
     14 H         145.0961  143.7396  170.1106 H       1  UNL1        0.1452
     15 H         144.1606  143.2940  171.4649 H       1  UNL1        0.1452
     16 C         138.5057  139.0354  165.0839 C.ar    1  UNL1        0.0830
     17 C         139.1705  137.9391  164.3052 C.ar    1  UNL1        0.0116
     18 C         139.1857  138.3407  162.8600 C.ar    1  UNL1        0.0076
     19 C         138.5303  139.6851  162.7455 C.ar    1  UNL1        0.0356
     20 S         138.1101  140.1144  164.1200 S.2     1  UNL1       -0.0819
     21 N         142.8336  141.8388  165.7246 N.pl3   1  UNL1       -0.3182
     22 H         142.3912  142.5061  165.1516 H       1  UNL1        0.1482
     23 C         143.7365  140.8076  165.1152 C.3     1  UNL1        0.0882
     24 C         143.1523  139.5826  164.4765 C.3     1  UNL1        0.0212
     25 C         143.6821  138.1454  166.5751 C.3     1  UNL1        0.0001
     26 C         142.9277  138.3451  165.2941 C.3     1  UNL1        0.0017
@<TRIPOS>BOND
     1    25    26    1
     2    26    24    1
     3    24    23    1
     4    23    21    1
     5    21     1    1
     6     1     2   ar
     7     2     3   ar
     8     3     4    1
     9     3     5   ar
    10     5     6   ar
    11     6     7   ar
    12     7     8    1
    13     8     9    1
    14     9    10   am
    15    10    11    2
    16    10    16    1
    17    16    17   ar
    18    17    18   ar
    19    18    19   ar
    20    19    20   ar
    21     9    12    1
    22    12    13    1
    23     7     1   ar
    24    20    16   ar
    25    13     6    1
    26    21    22    1
    27     4    14    1
    28     4    15    1
@<TRIPOS>MOLECULE
*****
 26 28 0 0 0
SMALL
GASTEIGER

@<TRIPOS>ATOM
      1 C         140.4719  140.9577  164.3804 C.ar    1  UNL1        0.1301
      2 N         140.2450  140.5477  162.9555 N.ar    1  UNL1       -0.1995
      3 C         139.2534  139.4691  162.6343 C.ar    1  UNL1        0.2145
      4 N         139.0265  139.0591  161.2093 N.pl3   1  UNL1       -0.3274
      5 N         138.4886  138.8005  163.7379 N.ar    1  UNL1       -0.2185
      6 C         138.7154  139.2105  165.1629 C.ar    1  UNL1        0.0639
      7 C         139.7071  140.2891  165.4842 C.ar    1  UNL1        0.0429
      8 C         139.9340  140.6991  166.9090 C.3     1  UNL1        0.1244
      9 N         139.1692  140.0305  168.0127 N.am    1  UNL1       -0.2710
     10 C         139.3961  140.4405  169.4377 C.2     1  UNL1        0.2553
     11 O         138.6313  139.7719  170.5413 O.2     1  UNL1       -0.2693
     12 C         138.1775  138.9519  167.6914 C.3     1  UNL1        0.1003
     13 C         137.9507  138.5419  166.2665 C.3     1  UNL1        0.0672
     14 H         139.5285  139.4979  160.4849 H       1  UNL1        0.1452
     15 H         138.3756  138.3511  160.9984 H       1  UNL1        0.1452
     16 C         140.3877  141.5191  169.7589 C.ar    1  UNL1        0.0830
     17 C         140.1401  142.9964  169.6800 C.ar    1  UNL1        0.0116
     18 C         141.4005  143.7002  170.0878 C.ar    1  UNL1        0.0076
     19 C         142.4271  142.6578  170.4188 C.ar    1  UNL1        0.0356
     20 S         141.8011  141.3098  170.2155 S.2     1  UNL1       -0.0819
     21 N         141.4636  142.0363  164.7017 N.pl3   1  UNL1       -0.3182
     22 H         142.3830  141.7983  164.9611 H       1  UNL1        0.1482
     23 C         141.0544  143.4775  164.6277 C.3     1  UNL1        0.0882
     24 C         139.9392  143.9859  165.4925 C.3     1  UNL1        0.0212
     25 C         137.8338  143.9434  163.9707 C.3     1  UNL1        0.0001
     26 C         138.7708  144.6924  164.8713 C.3     1  UNL1        0.0017
@<TRIPOS>BOND
     1    25    26    1
     2    26    24    1
     3    24    23    1
     4    23    21    1
     5    21     1    1
     6     1     2   ar
     7     2     3   ar
     8     3     4    1
     9     3     5   ar
    10     5     6   ar
    11     6     7   ar
    12     7     8    1
    13     8     9    1
    14     9    10   am
    15    10    11    2
    16    10    16    1
    17    16    17   ar
    18    17    18   ar
    19    18    19   ar
    20    19    20   ar
    21     9    12    1
    22    12    13    1
    23     7     1   ar
    24    20    16   ar
    25    13     6    1
    26    21    22    1
    27     4    14    1
    28     4    15    1
@<TRIPOS>MOLECULE
*****
 26 28 0 0 0
SMALL
GASTEIGER

@<TRIPOS>ATOM
      1 C         139.0665  140.1834  165.1058 C.ar    1  UNL1        0.1301
      2 N         138.0164  139.2949  165.7040 N.ar    1  UNL1       -0.1995
      3 C         138.0903  138.9177  167.1539 C.ar    1  UNL1        0.2145
      4 N         137.0402  138.0291  167.7521 N.pl3   1  UNL1       -0.3274
      5 N         139.2142  139.4289  168.0056 N.ar    1  UNL1       -0.2185
      6 C         140.2643  140.3175  167.4074 C.ar    1  UNL1        0.0639
      7 C         140.1904  140.6947  165.9575 C.ar    1  UNL1        0.0429
      8 C         141.2405  141.5833  165.3593 C.3     1  UNL1        0.1244
      9 N         142.3644  142.0945  166.2110 N.am    1  UNL1       -0.2710
     10 C         143.4145  142.9831  165.6128 C.2     1  UNL1        0.2553
     11 O         144.5384  143.4944  166.4644 O.2     1  UNL1       -0.2693
     12 C         142.4382  141.7173  167.6609 C.3     1  UNL1        0.1003
     13 C         141.3882  140.8288  168.2591 C.3     1  UNL1        0.0672
     14 H         136.3025  137.6935  167.1931 H       1  UNL1        0.1452
     15 H         137.0886  137.7815  168.7038 H       1  UNL1        0.1452
     16 C         143.3406  143.3603  164.1629 C.ar    1  UNL1        0.0830
     17 C         142.4361  144.3978  163.5667 C.ar    1  UNL1        0.0116
     18 C         142.6948  144.4450  162.0899 C.ar    1  UNL1        0.0076
     19 C         143.7592  143.4367  161.7734 C.ar    1  UNL1        0.0356
     20 S         144.1584  142.7664  163.0545 S.2     1  UNL1       -0.0819
     21 N         138.9926  140.5607  163.6559 N.pl3   1  UNL1       -0.3182
     22 H         139.4590  140.0162  162.9812 H       1  UNL1        0.1482
     23 C         138.2081  141.7675  163.2339 C.3     1  UNL1        0.0882
     24 C         137.6423  142.6938  164.2692 C.3     1  UNL1        0.0212
     25 C         138.8448  144.7525  165.3016 C.3     1  UNL1        0.0001
     26 C         137.9789  144.1551  164.2323 C.3     1  UNL1        0.0017
@<TRIPOS>BOND
     1    25    26    1
     2    26    24    1
     3    24    23    1
     4    23    21    1
     5    21     1    1
     6     1     2   ar
     7     2     3   ar
     8     3     4    1
     9     3     5   ar
    10     5     6   ar
    11     6     7   ar
    12     7     8    1
    13     8     9    1
    14     9    10   am
    15    10    11    2
    16    10    16    1
    17    16    17   ar
    18    17    18   ar
    19    18    19   ar
    20    19    20   ar
    21     9    12    1
    22    12    13    1
    23     7     1   ar
    24    20    16   ar
    25    13     6    1
    26    21    22    1
    27     4    14    1
    28     4    15    1
@<TRIPOS>MOLECULE
*****
 26 28 0 0 0
SMALL
GASTEIGER

@<TRIPOS>ATOM
      1 C         141.1799  143.9619  163.4187 C.ar    1  UNL1        0.1301
      2 N         140.8743  145.2256  162.6706 N.ar    1  UNL1       -0.1995
      3 C         139.5171  145.4292  162.0652 C.ar    1  UNL1        0.2145
      4 N         139.2115  146.6930  161.3171 N.pl3   1  UNL1       -0.3274
      5 N         138.4655  144.3692  162.2078 N.ar    1  UNL1       -0.2185
      6 C         138.7711  143.1054  162.9559 C.ar    1  UNL1        0.0639
      7 C         140.1283  142.9018  163.5613 C.ar    1  UNL1        0.0429
      8 C         140.4339  141.6381  164.3094 C.3     1  UNL1        0.1244
      9 N         139.3823  140.5780  164.4520 N.am    1  UNL1       -0.2710
     10 C         139.6879  139.3142  165.2000 C.2     1  UNL1        0.2553
     11 O         138.6364  138.2541  165.3426 O.2     1  UNL1       -0.2693
     12 C         138.0252  140.7816  163.8465 C.3     1  UNL1        0.1003
     13 C         137.7195  142.0453  163.0985 C.3     1  UNL1        0.0672
     14 H         139.9017  147.3888  161.2235 H       1  UNL1        0.1452
     15 H         138.3207  146.8267  160.9197 H       1  UNL1        0.1452
     16 C         141.0451  139.1106  165.8055 C.ar    1  UNL1        0.0830
     17 C         141.5144  139.6562  167.1216 C.ar    1  UNL1        0.0116
     18 C         142.9306  139.2084  167.3307 C.ar    1  UNL1        0.0076
     19 C         143.3367  138.3861  166.1437 C.ar    1  UNL1        0.0356
     20 S         142.1715  138.3256  165.2011 S.2     1  UNL1       -0.0819
     21 N         142.5371  143.7583  164.0241 N.pl3   1  UNL1       -0.3182
     22 H         142.6223  143.5494  164.9824 H       1  UNL1        0.1482
     23 C         143.7644  143.8731  163.1696 C.3     1  UNL1        0.0882
     24 C         144.3562  142.6477  162.5384 C.3     1  UNL1        0.0212
     25 C         145.2926  140.7662  164.0658 C.3     1  UNL1        0.0001
     26 C         145.5211  141.9589  163.1854 C.3     1  UNL1        0.0017
@<TRIPOS>BOND
     1    25    26    1
     2    26    24    1
     3    24    23    1
     4    23    21    1
     5    21     1    1
     6     1     2   ar
     7     2     3   ar
     8     3     4    1
     9     3     5   ar
    10     5     6   ar
    11     6     7   ar
    12     7     8    1
    13     8     9    1
    14     9    10   am
    15    10    11    2
    16    10    16    1
    17    16    17   ar
    18    17    18   ar
    19    18    19   ar
    20    19    20   ar
    21     9    12    1
    22    12    13    1
    23     7     1   ar
    24    20    16   ar
    25    13     6    1
    26    21    22    1
    27     4    14    1
    28     4    15    1
@<TRIPOS>MOLECULE
*****
 26 28 0 0 0
SMALL
GASTEIGER

@<TRIPOS>ATOM
      1 C         139.5804  140.1303  167.4384 C.ar    1  UNL1        0.1301
      2 N         139.2586  139.7034  168.8399 N.ar    1  UNL1       -0.1995
      3 C         140.1834  140.0636  169.9646 C.ar    1  UNL1        0.2145
      4 N         139.8615  139.6366  171.3662 N.pl3   1  UNL1       -0.3274
      5 N         141.4299  140.8506  169.6879 N.ar    1  UNL1       -0.2185
      6 C         141.7518  141.2775  168.2864 C.ar    1  UNL1        0.0639
      7 C         140.8270  140.9173  167.1616 C.ar    1  UNL1        0.0429
      8 C         141.1488  141.3442  165.7601 C.3     1  UNL1        0.1244
      9 N         142.3954  142.1313  165.4834 N.am    1  UNL1       -0.2710
     10 C         142.7173  142.5582  164.0819 C.2     1  UNL1        0.2553
     11 O         143.9638  143.3452  163.8052 O.2     1  UNL1       -0.2693
     12 C         143.3201  142.4914  166.6082 C.3     1  UNL1        0.1003
     13 C         142.9983  142.0645  168.0097 C.3     1  UNL1        0.0672
     14 H         139.0433  139.1201  171.5478 H       1  UNL1        0.1452
     15 H         140.4684  139.8730  172.1044 H       1  UNL1        0.1452
     16 C         141.7925  142.1980  162.9571 C.ar    1  UNL1        0.0830
     17 C         141.7751  140.8960  162.2125 C.ar    1  UNL1        0.0116
     18 C         140.6946  140.9699  161.1747 C.ar    1  UNL1        0.0076
     19 C         140.0442  142.3176  161.2778 C.ar    1  UNL1        0.0356
     20 S         140.7228  143.0766  162.3794 S.2     1  UNL1       -0.0819
     21 N         138.6556  139.7701  166.3136 N.pl3   1  UNL1       -0.3182
     22 H         138.2929  140.4749  165.7297 H       1  UNL1        0.1482
     23 C         138.2836  138.3362  166.0785 C.3     1  UNL1        0.0882
     24 C         138.8389  137.6017  164.8944 C.3     1  UNL1        0.0212
     25 C         141.4321  137.6096  164.7354 C.3     1  UNL1        0.0001
     26 C         140.0987  138.0823  164.2370 C.3     1  UNL1        0.0017
@<TRIPOS>BOND
     1    25    26    1
     2    26    24    1
     3    24    23    1
     4    23    21    1
     5    21     1    1
     6     1     2   ar
     7     2     3   ar
     8     3     4    1
     9     3     5   ar
    10     5     6   ar
    11     6     7   ar
    12     7     8    1
    13     8     9    1
    14     9    10   am
    15    10    11    2
    16    10    16    1
    17    16    17   ar
    18    17    18   ar
    19    18    19   ar
    20    19    20   ar
    21     9    12    1
    22    12    13    1
    23     7     1   ar
    24    20    16   ar
    25    13     6    1
    26    21    22    1
    27     4    14    1
    28     4    15    1
@<TRIPOS>MOLECULE
*****
 26 28 0 0 0
SMALL
GASTEIGER

@<TRIPOS>ATOM
      1 C         140.7861  140.8329  164.2562 C.ar    1  UNL1        0.1301
      2 N         140.3737  140.5330  162.8456 N.ar    1  UNL1       -0.1995
      3 C         139.1546  139.6999  162.5816 C.ar    1  UNL1        0.2145
      4 N         138.7422  139.4001  161.1708 N.pl3   1  UNL1       -0.3274
      5 N         138.3479  139.1667  163.7282 N.ar    1  UNL1       -0.2185
      6 C         138.7603  139.4665  165.1389 C.ar    1  UNL1        0.0639
      7 C         139.9794  140.2996  165.4029 C.ar    1  UNL1        0.0429
      8 C         140.3918  140.5995  166.8136 C.3     1  UNL1        0.1244
      9 N         139.5851  140.0662  167.9602 N.am    1  UNL1       -0.2710
     10 C         139.9975  140.3661  169.3709 C.2     1  UNL1        0.2553
     11 O         139.1908  139.8328  170.5176 O.2     1  UNL1       -0.2693
     12 C         138.3660  139.2331  167.6962 C.3     1  UNL1        0.1003
     13 C         137.9536  138.9333  166.2856 C.3     1  UNL1        0.0672
     14 H         139.2717  139.7501  160.4182 H       1  UNL1        0.1452
     15 H         137.9421  138.8533  160.9975 H       1  UNL1        0.1452
     16 C         141.2166  141.1992  169.6350 C.ar    1  UNL1        0.0830
     17 C         142.6400  140.7398  169.5212 C.ar    1  UNL1        0.0116
     18 C         143.5295  141.8947  169.8750 C.ar    1  UNL1        0.0076
     19 C         142.6558  143.0678  170.2075 C.ar    1  UNL1        0.0356
     20 S         141.2264  142.6379  170.0591 S.2     1  UNL1       -0.0819
     21 N         142.0053  141.6660  164.5202 N.pl3   1  UNL1       -0.3182
     22 H         141.9092  142.5864  164.8561 H       1  UNL1        0.1482
     23 C         143.3707  141.0967  164.2725 C.3     1  UNL1        0.0882
     24 C         143.5606  139.6109  164.1920 C.3     1  UNL1        0.0212
     25 C         143.4258  138.4843  166.5293 C.3     1  UNL1        0.0001
     26 C         144.2225  138.8772  165.3205 C.3     1  UNL1        0.0017
@<TRIPOS>BOND
     1    25    26    1
     2    26    24    1
     3    24    23    1
     4    23    21    1
     5    21     1    1
     6     1     2   ar
     7     2     3   ar
     8     3     4    1
     9     3     5   ar
    10     5     6   ar
    11     6     7   ar
    12     7     8    1
    13     8     9    1
    14     9    10   am
    15    10    11    2
    16    10    16    1
    17    16    17   ar
    18    17    18   ar
    19    18    19   ar
    20    19    20   ar
    21     9    12    1
    22    12    13    1
    23     7     1   ar
    24    20    16   ar
    25    13     6    1
    26    21    22    1
    27     4    14    1
    28     4    15    1
@<TRIPOS>MOLECULE
*****
 26 28 0 0 0
SMALL
GASTEIGER

@<TRIPOS>ATOM
      1 C         140.0209  139.9355  166.3605 C.ar    1  UNL1        0.1301
      2 N         138.8191  139.4806  167.1343 N.ar    1  UNL1       -0.1995
      3 C         138.1087  138.2188  166.7430 C.ar    1  UNL1        0.2145
      4 N         136.9069  137.7639  167.5168 N.pl3   1  UNL1       -0.3274
      5 N         138.6001  137.4119  165.5780 N.ar    1  UNL1       -0.2185
      6 C         139.8019  137.8667  164.8042 C.ar    1  UNL1        0.0639
      7 C         140.5123  139.1286  165.1954 C.ar    1  UNL1        0.0429
      8 C         141.7141  139.5834  164.4217 C.3     1  UNL1        0.1244
      9 N         142.2055  138.7765  163.2566 N.am    1  UNL1       -0.2710
     10 C         143.4073  139.2314  162.4828 C.2     1  UNL1        0.2553
     11 O         143.8987  138.4244  161.3178 O.2     1  UNL1       -0.2693
     12 C         141.4951  137.5147  162.8654 C.3     1  UNL1        0.1003
     13 C         140.2933  137.0598  163.6391 C.3     1  UNL1        0.0672
     14 H         136.5844  138.2936  168.2815 H       1  UNL1        0.1452
     15 H         136.4406  136.9358  167.2601 H       1  UNL1        0.1452
     16 C         144.1178  140.4932  162.8741 C.ar    1  UNL1        0.0830
     17 C         145.2541  140.5997  163.8474 C.ar    1  UNL1        0.0116
     18 C         145.6552  142.0424  163.9356 C.ar    1  UNL1        0.0076
     19 C         144.7668  142.8275  163.0168 C.ar    1  UNL1        0.0356
     20 S         143.8166  141.8700  162.3608 S.2     1  UNL1       -0.0819
     21 N         140.7313  141.1973  166.7518 N.pl3   1  UNL1       -0.3182
     22 H         140.5230  142.0424  166.2918 H       1  UNL1        0.1482
     23 C         141.7592  141.1716  167.8440 C.3     1  UNL1        0.0882
     24 C         141.8906  142.3380  168.7779 C.3     1  UNL1        0.0212
     25 C         139.8350  142.6154  170.3423 C.3     1  UNL1        0.0001
     26 C         140.6711  143.1043  169.1970 C.3     1  UNL1        0.0017
@<TRIPOS>BOND
     1    25    26    1
     2    26    24    1
     3    24    23    1
     4    23    21    1
     5    21     1    1
     6     1     2   ar
     7     2     3   ar
     8     3     4    1
     9     3     5   ar
    10     5     6   ar
    11     6     7   ar
    12     7     8    1
    13     8     9    1
    14     9    10   am
    15    10    11    2
    16    10    16    1
    17    16    17   ar
    18    17    18   ar
    19    18    19   ar
    20    19    20   ar
    21     9    12    1
    22    12    13    1
    23     7     1   ar
    24    20    16   ar
    25    13     6    1
    26    21    22    1
    27     4    14    1
    28     4    15    1
