@<TRIPOS>MOLECULE
*****
 33 35 0 0 0
SMALL
GASTEIGER

@<TRIPOS>ATOM
      1 C         143.0418  139.3493  166.2216 C.2     1  UNL1        0.2521
      2 O         143.7226  138.1146  166.7335 O.2     1  UNL1       -0.2698
      3 N         143.2197  139.7657  164.7916 N.am    1  UNL1       -0.2725
      4 C         142.5389  141.0004  164.2798 C.3     1  UNL1        0.1151
      5 C         142.7169  141.4169  162.8497 C.3     1  UNL1        0.1124
      6 N         143.5756  140.5986  161.9316 N.pl3   1  UNL1       -0.3023
      7 C         144.2564  139.3639  162.4435 C.3     1  UNL1        0.1124
      8 C         144.0785  138.9475  163.8734 C.3     1  UNL1        0.1151
      9 C         143.7535  141.0151  160.5016 C.ar    1  UNL1        0.0758
     10 C         143.3330  140.0945  159.3945 C.ar    1  UNL1        0.0175
     11 C         143.5110  140.5110  157.9645 C.ar    1  UNL1        0.0117
     12 C         144.1094  141.8480  157.6416 C.ar    1  UNL1        0.0708
     13 C         144.5299  142.7686  158.7488 C.ar    1  UNL1        0.0412
     14 C         144.3519  142.3521  160.1787 C.ar    1  UNL1        0.1540
     15 F         144.7724  143.2727  161.2859 F       1  UNL1       -0.2028
     16 C         144.2873  142.2645  156.2117 C.1     1  UNL1        0.1005
     17 N         144.4652  142.6810  154.7816 N.1     1  UNL1       -0.1908
     18 C         141.9599  141.9101  169.0539 C.ar    1  UNL1        0.1061
     19 C         140.4657  141.8041  168.9762 C.ar    1  UNL1        0.0215
     20 C         139.8302  140.8798  167.9803 C.ar    1  UNL1        0.0384
     21 C         140.6888  140.0615  167.0621 C.ar    1  UNL1        0.1433
     22 C         142.1830  140.1676  167.1398 C.ar    1  UNL1        0.0887
     23 C         142.8185  141.0918  168.1357 C.ar    1  UNL1        0.0259
     24 C         143.2309  143.7586  171.0457 C.3     1  UNL1        0.1816
     25 S         142.5954  142.8344  170.0498 S.O2    1  UNL1        0.0105
     26 O         141.2601  143.0560  170.6962 O.2     1  UNL1       -0.1686
     27 O         143.9307  142.6127  169.4034 O.2     1  UNL1       -0.1686
     28 O         140.0533  139.1373  166.0662 O.3     1  UNL1       -0.4665
     29 C         138.5599  139.0090  166.0086 C.3     1  UNL1        0.3081
     30 C         137.8870  137.8066  166.6013 C.3     1  UNL1        0.4380
     31 F         137.2141  136.6041  167.1940 F       1  UNL1       -0.1663
     32 F         138.5003  136.9407  165.5410 F       1  UNL1       -0.1663
     33 F         137.2737  138.6724  167.6615 F       1  UNL1       -0.1663
@<TRIPOS>BOND
     1    24    25    1
     2    25    26    2
     3    25    27    2
     4    25    18    1
     5    18    19   ar
     6    19    20   ar
     7    20    21   ar
     8    21    28    1
     9    28    29    1
    10    29    30    1
    11    30    31    1
    12    30    32    1
    13    30    33    1
    14    21    22   ar
    15    22     1    1
    16     1     2    2
    17     1     3   am
    18     3     4    1
    19     4     5    1
    20     5     6    1
    21     6     9    1
    22     9    10   ar
    23    10    11   ar
    24    11    12   ar
    25    12    16    1
    26    16    17    3
    27    12    13   ar
    28    13    14   ar
    29    14    15    1
    30     6     7    1
    31     7     8    1
    32    22    23   ar
    33    23    18   ar
    34     8     3    1
    35    14     9   ar
@<TRIPOS>MOLECULE
*****
 33 35 0 0 0
SMALL
GASTEIGER

@<TRIPOS>ATOM
      1 C         141.6583  139.8045  165.7889 C.2     1  UNL1        0.2521
      2 O         142.3522  138.4798  165.6725 O.2     1  UNL1       -0.2698
      3 N         141.4315  140.6424  164.5656 N.am    1  UNL1       -0.2725
      4 C         140.7375  141.9671  164.6820 C.3     1  UNL1        0.1151
      5 C         140.5107  142.8051  163.4586 C.3     1  UNL1        0.1124
      6 N         140.9779  142.3183  162.1190 N.pl3   1  UNL1       -0.3023
      7 C         141.6718  140.9935  162.0026 C.3     1  UNL1        0.1124
      8 C         141.8986  140.1556  163.2258 C.3     1  UNL1        0.1151
      9 C         140.7511  143.1562  160.8957 C.ar    1  UNL1        0.0758
     10 C         139.7799  142.7035  159.8460 C.ar    1  UNL1        0.0175
     11 C         139.5531  143.5415  158.6227 C.ar    1  UNL1        0.0117
     12 C         140.2975  144.8321  158.4491 C.ar    1  UNL1        0.0708
     13 C         141.2687  145.2848  159.4988 C.ar    1  UNL1        0.0412
     14 C         141.4955  144.4469  160.7221 C.ar    1  UNL1        0.1540
     15 F         142.4667  144.8996  161.7718 F       1  UNL1       -0.2028
     16 C         140.0707  145.6700  157.2259 C.1     1  UNL1        0.1005
     17 N         139.8439  146.5080  156.0026 N.1     1  UNL1       -0.1908
     18 C         141.5953  141.6898  169.2805 C.ar    1  UNL1        0.1061
     19 C         140.2570  141.2649  169.8080 C.ar    1  UNL1        0.0215
     20 C         139.3857  140.3532  168.9958 C.ar    1  UNL1        0.0384
     21 C         139.8528  139.8664  167.6561 C.ar    1  UNL1        0.1433
     22 C         141.1911  140.2913  167.1286 C.ar    1  UNL1        0.0887
     23 C         142.0624  141.2030  167.9408 C.ar    1  UNL1        0.0259
     24 C         143.3378  143.5133  170.9050 C.3     1  UNL1        0.1816
     25 S         142.4666  142.6015  170.0927 S.O2    1  UNL1        0.0105
     26 O         141.4989  142.5086  171.2351 O.2     1  UNL1       -0.1686
     27 O         143.4342  142.6945  168.9504 O.2     1  UNL1       -0.1686
     28 O         138.9816  138.9547  166.8439 O.3     1  UNL1       -0.4665
     29 C         138.1184  139.5169  165.7536 C.3     1  UNL1        0.3081
     30 C         138.3556  139.1165  164.3276 C.3     1  UNL1        0.4380
     31 F         138.5928  138.7162  162.9016 F       1  UNL1       -0.1663
     32 F         139.0766  137.8863  164.7929 F       1  UNL1       -0.1663
     33 F         137.6346  140.3468  163.8622 F       1  UNL1       -0.1663
@<TRIPOS>BOND
     1    24    25    1
     2    25    26    2
     3    25    27    2
     4    25    18    1
     5    18    19   ar
     6    19    20   ar
     7    20    21   ar
     8    21    28    1
     9    28    29    1
    10    29    30    1
    11    30    31    1
    12    30    32    1
    13    30    33    1
    14    21    22   ar
    15    22     1    1
    16     1     2    2
    17     1     3   am
    18     3     4    1
    19     4     5    1
    20     5     6    1
    21     6     9    1
    22     9    10   ar
    23    10    11   ar
    24    11    12   ar
    25    12    16    1
    26    16    17    3
    27    12    13   ar
    28    13    14   ar
    29    14    15    1
    30     6     7    1
    31     7     8    1
    32    22    23   ar
    33    23    18   ar
    34     8     3    1
    35    14     9   ar
@<TRIPOS>MOLECULE
*****
 33 35 0 0 0
SMALL
GASTEIGER

@<TRIPOS>ATOM
      1 C         142.6202  140.3747  165.3724 C.2     1  UNL1        0.2521
      2 O         143.7116  139.3469  165.3217 O.2     1  UNL1       -0.2698
      3 N         142.2107  141.0961  164.1227 N.am    1  UNL1       -0.2725
      4 C         141.1193  142.1239  164.1734 C.3     1  UNL1        0.1151
      5 C         140.7098  142.8453  162.9236 C.3     1  UNL1        0.1124
      6 N         141.3916  142.5389  161.6231 N.pl3   1  UNL1       -0.3023
      7 C         142.4830  141.5111  161.5724 C.3     1  UNL1        0.1124
      8 C         142.8926  140.7897  162.8222 C.3     1  UNL1        0.1151
      9 C         140.9821  143.2603  160.3734 C.ar    1  UNL1        0.0758
     10 C         141.3755  144.6936  160.1717 C.ar    1  UNL1        0.0175
     11 C         140.9660  145.4150  158.9219 C.ar    1  UNL1        0.0117
     12 C         140.1630  144.7031  157.8739 C.ar    1  UNL1        0.0708
     13 C         139.7696  143.2697  158.0757 C.ar    1  UNL1        0.0412
     14 C         140.1791  142.5483  159.3254 C.ar    1  UNL1        0.1540
     15 F         139.7857  141.1150  159.5271 F       1  UNL1       -0.2028
     16 C         139.7535  145.4244  156.6242 C.1     1  UNL1        0.1005
     17 N         139.3439  146.1458  155.3744 N.1     1  UNL1       -0.1908
     18 C         141.9271  141.8732  168.9813 C.ar    1  UNL1        0.1061
     19 C         140.5748  141.2939  169.2738 C.ar    1  UNL1        0.0215
     20 C         139.9043  140.4081  168.2659 C.ar    1  UNL1        0.0384
     21 C         140.5861  140.1017  166.9655 C.ar    1  UNL1        0.1433
     22 C         141.9384  140.6811  166.6729 C.ar    1  UNL1        0.0887
     23 C         142.6089  141.5668  167.6808 C.ar    1  UNL1        0.0259
     24 C         143.2681  143.6447  170.9971 C.3     1  UNL1        0.1816
     25 S         142.5976  142.7590  169.9892 S.O2    1  UNL1        0.0105
     26 O         143.8553  142.7365  169.1722 O.2     1  UNL1       -0.1686
     27 O         141.3398  142.7814  170.8062 O.2     1  UNL1       -0.1686
     28 O         139.9156  139.2160  165.9575 O.3     1  UNL1       -0.4665
     29 C         138.4286  139.0238  165.9995 C.3     1  UNL1        0.3081
     30 C         137.8503  137.7737  166.5934 C.3     1  UNL1        0.4380
     31 F         137.2721  136.5235  167.1874 F       1  UNL1       -0.1663
     32 F         138.5092  136.9589  165.5201 F       1  UNL1       -0.1663
     33 F         137.1915  138.5884  167.6668 F       1  UNL1       -0.1663
@<TRIPOS>BOND
     1    24    25    1
     2    25    26    2
     3    25    27    2
     4    25    18    1
     5    18    19   ar
     6    19    20   ar
     7    20    21   ar
     8    21    28    1
     9    28    29    1
    10    29    30    1
    11    30    31    1
    12    30    32    1
    13    30    33    1
    14    21    22   ar
    15    22     1    1
    16     1     2    2
    17     1     3   am
    18     3     4    1
    19     4     5    1
    20     5     6    1
    21     6     9    1
    22     9    10   ar
    23    10    11   ar
    24    11    12   ar
    25    12    16    1
    26    16    17    3
    27    12    13   ar
    28    13    14   ar
    29    14    15    1
    30     6     7    1
    31     7     8    1
    32    22    23   ar
    33    23    18   ar
    34     8     3    1
    35    14     9   ar
@<TRIPOS>MOLECULE
*****
 33 35 0 0 0
SMALL
GASTEIGER

@<TRIPOS>ATOM
      1 C         139.2717  142.3997  164.6873 C.2     1  UNL1        0.2521
      2 O         138.0466  143.2575  164.5723 O.2     1  UNL1       -0.2698
      3 N         140.1759  142.2210  163.5039 N.am    1  UNL1       -0.2725
      4 C         141.4010  141.3631  163.6189 C.3     1  UNL1        0.1151
      5 C         142.3052  141.1844  162.4354 C.3     1  UNL1        0.1124
      6 N         141.9843  141.8635  161.1371 N.pl3   1  UNL1       -0.3023
      7 C         140.7592  142.7214  161.0221 C.3     1  UNL1        0.1124
      8 C         139.8550  142.9001  162.2055 C.3     1  UNL1        0.1151
      9 C         142.8885  141.6848  159.9537 C.ar    1  UNL1        0.0758
     10 C         143.8367  142.7793  159.5622 C.ar    1  UNL1        0.0175
     11 C         144.7409  142.6005  158.3788 C.ar    1  UNL1        0.0117
     12 C         144.6970  141.3273  157.5869 C.ar    1  UNL1        0.0708
     13 C         143.7488  140.2329  157.9783 C.ar    1  UNL1        0.0412
     14 C         142.8446  140.4116  159.1617 C.ar    1  UNL1        0.1540
     15 F         141.8965  139.3172  159.5532 F       1  UNL1       -0.2028
     16 C         145.6012  141.1486  156.4035 C.1     1  UNL1        0.1005
     17 N         146.5055  140.9700  155.2201 N.1     1  UNL1       -0.1908
     18 C         140.8035  141.7176  168.2842 C.ar    1  UNL1        0.1061
     19 C         140.2342  140.3623  168.5824 C.ar    1  UNL1        0.0215
     20 C         139.3441  139.6861  167.5823 C.ar    1  UNL1        0.0384
     21 C         139.0232  140.3652  166.2839 C.ar    1  UNL1        0.1433
     22 C         139.5925  141.7205  165.9857 C.ar    1  UNL1        0.0887
     23 C         140.4827  142.3967  166.9859 C.ar    1  UNL1        0.0259
     24 C         142.5839  143.0700  170.2846 C.3     1  UNL1        0.1816
     25 S         141.6937  142.3938  169.2844 S.O2    1  UNL1        0.0105
     26 O         142.7111  141.3046  169.1153 O.2     1  UNL1       -0.1686
     27 O         140.6763  143.4830  169.4535 O.2     1  UNL1       -0.1686
     28 O         138.1330  139.6890  165.2837 O.3     1  UNL1       -0.4665
     29 C         138.7293  138.8250  164.2124 C.3     1  UNL1        0.3081
     30 C         139.7032  137.7437  164.5763 C.3     1  UNL1        0.4380
     31 F         140.6770  136.6624  164.9402 F       1  UNL1       -0.1663
     32 F         138.6930  137.1489  165.5121 F       1  UNL1       -0.1663
     33 F         140.7133  138.3385  163.6405 F       1  UNL1       -0.1663
@<TRIPOS>BOND
     1    24    25    1
     2    25    26    2
     3    25    27    2
     4    25    18    1
     5    18    19   ar
     6    19    20   ar
     7    20    21   ar
     8    21    28    1
     9    28    29    1
    10    29    30    1
    11    30    31    1
    12    30    32    1
    13    30    33    1
    14    21    22   ar
    15    22     1    1
    16     1     2    2
    17     1     3   am
    18     3     4    1
    19     4     5    1
    20     5     6    1
    21     6     9    1
    22     9    10   ar
    23    10    11   ar
    24    11    12   ar
    25    12    16    1
    26    16    17    3
    27    12    13   ar
    28    13    14   ar
    29    14    15    1
    30     6     7    1
    31     7     8    1
    32    22    23   ar
    33    23    18   ar
    34     8     3    1
    35    14     9   ar
@<TRIPOS>MOLECULE
*****
 33 35 0 0 0
SMALL
GASTEIGER

@<TRIPOS>ATOM
      1 C         138.6021  140.1278  160.2370 C.2     1  UNL1        0.2521
      2 O         137.2059  139.8356  159.7730 O.2     1  UNL1       -0.2698
      3 N         138.8741  140.3664  161.6927 N.am    1  UNL1       -0.2725
      4 C         140.2703  140.6586  162.1567 C.3     1  UNL1        0.1151
      5 C         140.5423  140.8972  163.6125 C.3     1  UNL1        0.1124
      6 N         139.4181  140.8438  164.6041 N.pl3   1  UNL1       -0.3023
      7 C         138.0219  140.5516  164.1400 C.3     1  UNL1        0.1124
      8 C         137.7499  140.3130  162.6844 C.3     1  UNL1        0.1151
      9 C         139.6901  141.0824  166.0598 C.ar    1  UNL1        0.0758
     10 C         139.4305  139.9947  167.0595 C.ar    1  UNL1        0.0175
     11 C         139.7026  140.2334  168.5152 C.ar    1  UNL1        0.0117
     12 C         140.2342  141.5598  168.9712 C.ar    1  UNL1        0.0708
     13 C         140.4937  142.6476  167.9715 C.ar    1  UNL1        0.0412
     14 C         140.2217  142.4089  166.5158 C.ar    1  UNL1        0.1540
     15 F         140.4813  143.4967  165.5161 F       1  UNL1       -0.2028
     16 C         140.5062  141.7985  170.4268 C.1     1  UNL1        0.1005
     17 N         140.7781  142.0372  171.8826 N.1     1  UNL1       -0.1908
     18 C         141.5071  138.9663  157.7953 C.ar    1  UNL1        0.1061
     19 C         141.9746  140.2881  157.2620 C.ar    1  UNL1        0.0215
     20 C         141.3179  141.5564  157.7204 C.ar    1  UNL1        0.0384
     21 C         140.1938  141.5030  158.7121 C.ar    1  UNL1        0.1433
     22 C         139.7263  140.1812  159.2453 C.ar    1  UNL1        0.0887
     23 C         140.3829  138.9129  158.7869 C.ar    1  UNL1        0.0259
     24 C         142.8204  136.4296  156.8785 C.3     1  UNL1        0.1816
     25 S         142.1637  137.6980  157.3369 S.O2    1  UNL1        0.0105
     26 O         140.8348  137.1763  156.8767 O.2     1  UNL1       -0.1686
     27 O         143.4927  138.2197  157.7971 O.2     1  UNL1       -0.1686
     28 O         139.5371  142.7713  159.1705 O.3     1  UNL1       -0.4665
     29 C         140.3276  143.7912  159.9352 C.3     1  UNL1        0.3081
     30 C         139.7863  144.3533  161.2162 C.3     1  UNL1        0.4380
     31 F         139.2450  144.9154  162.4973 F       1  UNL1       -0.1663
     32 F         138.6298  143.4006  161.1456 F       1  UNL1       -0.1663
     33 F         140.9428  145.3059  161.2869 F       1  UNL1       -0.1663
@<TRIPOS>BOND
     1    24    25    1
     2    25    26    2
     3    25    27    2
     4    25    18    1
     5    18    19   ar
     6    19    20   ar
     7    20    21   ar
     8    21    28    1
     9    28    29    1
    10    29    30    1
    11    30    31    1
    12    30    32    1
    13    30    33    1
    14    21    22   ar
    15    22     1    1
    16     1     2    2
    17     1     3   am
    18     3     4    1
    19     4     5    1
    20     5     6    1
    21     6     9    1
    22     9    10   ar
    23    10    11   ar
    24    11    12   ar
    25    12    16    1
    26    16    17    3
    27    12    13   ar
    28    13    14   ar
    29    14    15    1
    30     6     7    1
    31     7     8    1
    32    22    23   ar
    33    23    18   ar
    34     8     3    1
    35    14     9   ar
@<TRIPOS>MOLECULE
*****
 33 35 0 0 0
SMALL
GASTEIGER

@<TRIPOS>ATOM
      1 C         141.4495  139.3047  164.0588 C.2     1  UNL1        0.2521
      2 O         142.6459  138.4005  164.0897 O.2     1  UNL1       -0.2698
      3 N         141.2867  140.2954  162.9444 N.am    1  UNL1       -0.2725
      4 C         140.0903  141.1996  162.9135 C.3     1  UNL1        0.1151
      5 C         139.9275  142.1904  161.7990 C.3     1  UNL1        0.1124
      6 N         140.9612  142.2770  160.7156 N.pl3   1  UNL1       -0.3023
      7 C         142.1577  141.3728  160.7465 C.3     1  UNL1        0.1124
      8 C         142.3204  140.3821  161.8609 C.3     1  UNL1        0.1151
      9 C         140.7984  143.2678  159.6012 C.ar    1  UNL1        0.0758
     10 C         140.3599  142.8043  158.2437 C.ar    1  UNL1        0.0175
     11 C         140.1971  143.7952  157.1293 C.ar    1  UNL1        0.0117
     12 C         140.4729  145.2494  157.3725 C.ar    1  UNL1        0.0708
     13 C         140.9115  145.7128  158.7300 C.ar    1  UNL1        0.0412
     14 C         141.0742  144.7221  159.8444 C.ar    1  UNL1        0.1540
     15 F         141.5128  145.1855  161.2019 F       1  UNL1       -0.2028
     16 C         140.3102  146.2401  156.2581 C.1     1  UNL1        0.1005
     17 N         140.1473  147.2309  155.1436 N.1     1  UNL1       -0.1908
     18 C         139.5650  139.9014  167.5001 C.ar    1  UNL1        0.1061
     19 C         138.3485  139.0449  167.3093 C.ar    1  UNL1        0.0215
     20 C         138.1656  138.2750  166.0350 C.ar    1  UNL1        0.0384
     21 C         139.1992  138.3616  164.9515 C.ar    1  UNL1        0.1433
     22 C         140.4158  139.2181  165.1423 C.ar    1  UNL1        0.0887
     23 C         140.5986  139.9880  166.4166 C.ar    1  UNL1        0.0259
     24 C         139.9307  141.4412  170.0487 C.3     1  UNL1        0.1816
     25 S         139.7479  140.6713  168.7744 S.O2    1  UNL1        0.0105
     26 O         140.7843  141.5271  168.1085 O.2     1  UNL1       -0.1686
     27 O         138.7114  139.8154  169.4402 O.2     1  UNL1       -0.1686
     28 O         139.0164  137.5917  163.6772 O.3     1  UNL1       -0.4665
     29 C         138.2675  138.2049  162.5314 C.3     1  UNL1        0.3081
     30 C         138.8917  138.2548  161.1684 C.3     1  UNL1        0.4380
     31 F         139.5160  138.3048  159.8053 F       1  UNL1       -0.1663
     32 F         140.0864  137.5116  161.6883 F       1  UNL1       -0.1663
     33 F         137.6970  138.9981  160.6484 F       1  UNL1       -0.1663
@<TRIPOS>BOND
     1    24    25    1
     2    25    26    2
     3    25    27    2
     4    25    18    1
     5    18    19   ar
     6    19    20   ar
     7    20    21   ar
     8    21    28    1
     9    28    29    1
    10    29    30    1
    11    30    31    1
    12    30    32    1
    13    30    33    1
    14    21    22   ar
    15    22     1    1
    16     1     2    2
    17     1     3   am
    18     3     4    1
    19     4     5    1
    20     5     6    1
    21     6     9    1
    22     9    10   ar
    23    10    11   ar
    24    11    12   ar
    25    12    16    1
    26    16    17    3
    27    12    13   ar
    28    13    14   ar
    29    14    15    1
    30     6     7    1
    31     7     8    1
    32    22    23   ar
    33    23    18   ar
    34     8     3    1
    35    14     9   ar
@<TRIPOS>MOLECULE
*****
 33 35 0 0 0
SMALL
GASTEIGER

@<TRIPOS>ATOM
      1 C         138.9408  139.5579  165.4770 C.2     1  UNL1        0.2521
      2 O         137.7058  138.8852  165.9987 O.2     1  UNL1       -0.2698
      3 N         139.4133  139.2800  164.0808 N.am    1  UNL1       -0.2725
      4 C         140.6483  139.9528  163.5591 C.3     1  UNL1        0.1151
      5 C         141.1209  139.6748  162.1628 C.3     1  UNL1        0.1124
      6 N         140.3584  138.7241  161.2883 N.pl3   1  UNL1       -0.3023
      7 C         139.1234  138.0513  161.8100 C.3     1  UNL1        0.1124
      8 C         138.6509  138.3293  163.2062 C.3     1  UNL1        0.1151
      9 C         140.8309  138.4462  159.8921 C.ar    1  UNL1        0.0758
     10 C         139.9106  138.6735  158.7296 C.ar    1  UNL1        0.0175
     11 C         140.3832  138.3956  157.3334 C.ar    1  UNL1        0.0117
     12 C         141.7760  137.8903  157.0996 C.ar    1  UNL1        0.0708
     13 C         142.6963  137.6630  158.2621 C.ar    1  UNL1        0.0412
     14 C         142.2238  137.9409  159.6583 C.ar    1  UNL1        0.1540
     15 F         143.1441  137.7136  160.8208 F       1  UNL1       -0.2028
     16 C         142.2486  137.6124  155.7034 C.1     1  UNL1        0.1005
     17 N         142.7211  137.3344  154.3071 N.1     1  UNL1       -0.1908
     18 C         141.3065  140.9332  168.3514 C.ar    1  UNL1        0.1061
     19 C         141.2282  142.4100  168.1007 C.ar    1  UNL1        0.0215
     20 C         140.3874  142.9361  166.9754 C.ar    1  UNL1        0.0384
     21 C         139.6250  141.9855  166.1008 C.ar    1  UNL1        0.1433
     22 C         139.7033  140.5087  166.3516 C.ar    1  UNL1        0.0887
     23 C         140.5441  139.9825  167.4769 C.ar    1  UNL1        0.0259
     24 C         142.9880  139.8809  170.6020 C.3     1  UNL1        0.1816
     25 S         142.1473  140.4070  169.4767 S.O2    1  UNL1        0.0105
     26 O         141.3584  141.2306  170.4511 O.2     1  UNL1       -0.1686
     27 O         142.9361  139.5835  168.5023 O.2     1  UNL1       -0.1686
     28 O         138.7842  142.5116  164.9755 O.3     1  UNL1       -0.4665
     29 C         138.4243  143.9669  164.9251 C.3     1  UNL1        0.3081
     30 C         138.7839  144.7872  163.7219 C.3     1  UNL1        0.4380
     31 F         139.1435  145.6076  162.5187 F       1  UNL1       -0.1663
     32 F         137.4466  144.4827  163.1146 F       1  UNL1       -0.1663
     33 F         140.1212  145.0917  164.3293 F       1  UNL1       -0.1663
@<TRIPOS>BOND
     1    24    25    1
     2    25    26    2
     3    25    27    2
     4    25    18    1
     5    18    19   ar
     6    19    20   ar
     7    20    21   ar
     8    21    28    1
     9    28    29    1
    10    29    30    1
    11    30    31    1
    12    30    32    1
    13    30    33    1
    14    21    22   ar
    15    22     1    1
    16     1     2    2
    17     1     3   am
    18     3     4    1
    19     4     5    1
    20     5     6    1
    21     6     9    1
    22     9    10   ar
    23    10    11   ar
    24    11    12   ar
    25    12    16    1
    26    16    17    3
    27    12    13   ar
    28    13    14   ar
    29    14    15    1
    30     6     7    1
    31     7     8    1
    32    22    23   ar
    33    23    18   ar
    34     8     3    1
    35    14     9   ar
@<TRIPOS>MOLECULE
*****
 33 35 0 0 0
SMALL
GASTEIGER

@<TRIPOS>ATOM
      1 C         143.2417  142.0526  164.5422 C.2     1  UNL1        0.2521
      2 O         144.4262  142.9728  164.5472 O.2     1  UNL1       -0.2698
      3 N         142.8875  141.2928  163.2984 N.am    1  UNL1       -0.2725
      4 C         141.7030  140.3725  163.2933 C.3     1  UNL1        0.1151
      5 C         141.3489  139.6127  162.0494 C.3     1  UNL1        0.1124
      6 N         142.1792  139.7731  160.8106 N.pl3   1  UNL1       -0.3023
      7 C         143.3637  140.6933  160.8156 C.3     1  UNL1        0.1124
      8 C         143.7179  141.4532  162.0594 C.3     1  UNL1        0.1151
      9 C         141.8250  139.0133  159.5667 C.ar    1  UNL1        0.0758
     10 C         142.8311  138.0973  158.9354 C.ar    1  UNL1        0.0175
     11 C         142.4769  137.3374  157.6915 C.ar    1  UNL1        0.0117
     12 C         141.1166  137.4936  157.0790 C.ar    1  UNL1        0.0708
     13 C         140.1105  138.4096  157.7104 C.ar    1  UNL1        0.0412
     14 C         140.4647  139.1694  158.9542 C.ar    1  UNL1        0.1540
     15 F         139.4585  140.0854  159.5856 F       1  UNL1       -0.2028
     16 C         140.7624  136.7338  155.8352 C.1     1  UNL1        0.1005
     17 N         140.4082  135.9739  154.5913 N.1     1  UNL1       -0.1908
     18 C         141.9505  140.6975  168.0417 C.ar    1  UNL1        0.1061
     19 C         140.7508  141.5713  168.2588 C.ar    1  UNL1        0.0215
     20 C         140.3814  142.6055  167.2371 C.ar    1  UNL1        0.0384
     21 C         141.2117  142.7660  165.9983 C.ar    1  UNL1        0.1433
     22 C         142.4114  141.8922  165.7811 C.ar    1  UNL1        0.0887
     23 C         142.7807  140.8579  166.8028 C.ar    1  UNL1        0.0259
     24 C         142.6892  138.6290  170.0851 C.3     1  UNL1        0.1816
     25 S         142.3199  139.6632  169.0634 S.O2    1  UNL1        0.0105
     26 O         141.5135  140.3947  170.0953 O.2     1  UNL1       -0.1686
     27 O         143.1262  138.9318  168.0315 O.2     1  UNL1       -0.1686
     28 O         140.8423  143.8002  164.9765 O.3     1  UNL1       -0.4665
     29 C         139.5701  143.6607  164.1942 C.3     1  UNL1        0.3081
     30 C         138.2777  144.1601  164.7690 C.3     1  UNL1        0.4380
     31 F         136.9852  144.6594  165.3437 F       1  UNL1       -0.1663
     32 F         138.9987  145.3265  165.3769 F       1  UNL1       -0.1663
     33 F         137.5567  142.9936  164.1610 F       1  UNL1       -0.1663
@<TRIPOS>BOND
     1    24    25    1
     2    25    26    2
     3    25    27    2
     4    25    18    1
     5    18    19   ar
     6    19    20   ar
     7    20    21   ar
     8    21    28    1
     9    28    29    1
    10    29    30    1
    11    30    31    1
    12    30    32    1
    13    30    33    1
    14    21    22   ar
    15    22     1    1
    16     1     2    2
    17     1     3   am
    18     3     4    1
    19     4     5    1
    20     5     6    1
    21     6     9    1
    22     9    10   ar
    23    10    11   ar
    24    11    12   ar
    25    12    16    1
    26    16    17    3
    27    12    13   ar
    28    13    14   ar
    29    14    15    1
    30     6     7    1
    31     7     8    1
    32    22    23   ar
    33    23    18   ar
    34     8     3    1
    35    14     9   ar
@<TRIPOS>MOLECULE
*****
 33 35 0 0 0
SMALL
GASTEIGER

@<TRIPOS>ATOM
      1 C         142.9855  140.0988  160.5223 C.2     1  UNL1        0.2521
      2 O         144.1408  139.2239  160.1351 O.2     1  UNL1       -0.2698
      3 N         142.6873  140.3498  161.9708 N.am    1  UNL1       -0.2725
      4 C         141.5320  141.2246  162.3580 C.3     1  UNL1        0.1151
      5 C         141.2339  141.4757  163.8065 C.3     1  UNL1        0.1124
      6 N         142.0910  140.8520  164.8677 N.pl3   1  UNL1       -0.3023
      7 C         143.2463  139.9771  164.4805 C.3     1  UNL1        0.1124
      8 C         143.5445  139.7261  163.0321 C.3     1  UNL1        0.1151
      9 C         141.7928  141.1030  166.3162 C.ar    1  UNL1        0.0758
     10 C         140.6218  140.4298  166.9685 C.ar    1  UNL1        0.0175
     11 C         140.3237  140.6809  168.4170 C.ar    1  UNL1        0.0117
     12 C         141.1965  141.6052  169.2131 C.ar    1  UNL1        0.0708
     13 C         142.3675  142.2784  168.5608 C.ar    1  UNL1        0.0412
     14 C         142.6657  142.0274  167.1124 C.ar    1  UNL1        0.1540
     15 F         143.8366  142.7006  166.4600 F       1  UNL1       -0.2028
     16 C         140.8983  141.8563  170.6616 C.1     1  UNL1        0.1005
     17 N         140.6001  142.1073  172.1101 N.1     1  UNL1       -0.1908
     18 C         141.5974  142.7155  157.8811 C.ar    1  UNL1        0.1061
     19 C         140.4142  141.9701  157.3386 C.ar    1  UNL1        0.0215
     20 C         140.0881  140.6009  157.8572 C.ar    1  UNL1        0.0384
     21 C         140.9452  139.9771  158.9185 C.ar    1  UNL1        0.1433
     22 C         142.1283  140.7225  159.4610 C.ar    1  UNL1        0.0887
     23 C         142.4544  142.0917  158.9424 C.ar    1  UNL1        0.0259
     24 C         142.2495  145.4538  156.8438 C.3     1  UNL1        0.1816
     25 S         141.9234  144.0847  157.3625 S.O2    1  UNL1        0.0105
     26 O         142.7031  144.3720  158.6113 O.2     1  UNL1       -0.1686
     27 O         141.1438  143.7973  156.1136 O.2     1  UNL1       -0.1686
     28 O         140.6191  138.6079  159.4371 O.3     1  UNL1       -0.4665
     29 C         139.3937  138.3958  160.2758 C.3     1  UNL1        0.3081
     30 C         139.5269  137.9136  161.6899 C.3     1  UNL1        0.4380
     31 F         139.6602  137.4314  163.1041 F       1  UNL1       -0.1663
     32 F         140.9897  137.6667  161.4679 F       1  UNL1       -0.1663
     33 F         138.0641  138.1605  161.9119 F       1  UNL1       -0.1663
@<TRIPOS>BOND
     1    24    25    1
     2    25    26    2
     3    25    27    2
     4    25    18    1
     5    18    19   ar
     6    19    20   ar
     7    20    21   ar
     8    21    28    1
     9    28    29    1
    10    29    30    1
    11    30    31    1
    12    30    32    1
    13    30    33    1
    14    21    22   ar
    15    22     1    1
    16     1     2    2
    17     1     3   am
    18     3     4    1
    19     4     5    1
    20     5     6    1
    21     6     9    1
    22     9    10   ar
    23    10    11   ar
    24    11    12   ar
    25    12    16    1
    26    16    17    3
    27    12    13   ar
    28    13    14   ar
    29    14    15    1
    30     6     7    1
    31     7     8    1
    32    22    23   ar
    33    23    18   ar
    34     8     3    1
    35    14     9   ar
