@<TRIPOS>MOLECULE
*****
 25 28 0 0 0
SMALL
GASTEIGER

@<TRIPOS>ATOM
      1 N         143.6547  144.0074  171.4644 N.pl3   1  UNL1       -0.3375
      2 C         143.0341  143.1840  170.3750 C.ar    1  UNL1        0.1567
      3 N         143.7288  142.6838  169.1432 N.ar    1  UNL1       -0.2245
      4 C         142.7339  141.9069  168.3330 C.ar    1  UNL1        0.0889
      5 C         142.8513  141.1838  167.0240 C.ar    1  UNL1        0.0151
      6 C         141.6589  140.4806  166.4461 C.ar    1  UNL1       -0.0232
      7 C         140.3493  140.5006  167.1771 C.ar    1  UNL1       -0.0241
      8 C         140.2319  141.2237  168.4860 C.ar    1  UNL1        0.0035
      9 C         141.4242  141.9268  169.0640 C.ar    1  UNL1        0.0494
     10 S         141.6098  142.7161  170.3260 S.2     1  UNL1       -0.0520
     11 C         139.0475  139.8693  166.7812 C.3     1  UNL1        0.0434
     12 C         138.7338  139.0621  165.5563 C.3     1  UNL1        0.0771
     13 N         139.6445  138.6869  164.4251 N.3     1  UNL1       -0.2683
     14 C         141.0938  139.0261  164.2391 C.3     1  UNL1        0.0771
     15 C         141.9903  139.8244  165.1386 C.3     1  UNL1        0.0434
     16 H         144.6028  144.2663  171.4064 H       1  UNL1        0.1442
     17 H         143.1140  144.2889  172.2374 H       1  UNL1        0.1442
     18 C         139.0239  137.8634  163.3357 C.3     1  UNL1        0.0992
     19 C         138.8791  138.4325  161.9553 C.ar    1  UNL1       -0.0060
     20 C         137.7464  139.3652  161.6437 C.ar    1  UNL1       -0.0006
     21 C         137.6015  139.9342  160.2635 C.ar    1  UNL1        0.0294
     22 C         138.5893  139.5705  159.1948 C.ar    1  UNL1        0.1401
     23 F         138.4445  140.1396  157.8144 F       1  UNL1       -0.2042
     24 C         139.7220  138.6378  159.5065 C.ar    1  UNL1        0.0294
     25 C         139.8669  138.0688  160.8867 C.ar    1  UNL1       -0.0006
@<TRIPOS>BOND
     1     1     2    1
     2     2     3   ar
     3     3     4   ar
     4     4     5   ar
     5     5     6   ar
     6     6     7   ar
     7     7     8   ar
     8     8     9   ar
     9     9    10   ar
    10     7    11    1
    11    11    12    1
    12    12    13    1
    13    13    18    1
    14    18    19    1
    15    19    20   ar
    16    20    21   ar
    17    21    22   ar
    18    22    23    1
    19    22    24   ar
    20    24    25   ar
    21    13    14    1
    22    14    15    1
    23    10     2   ar
    24    25    19   ar
    25     9     4   ar
    26    15     6    1
    27     1    16    1
    28     1    17    1
@<TRIPOS>MOLECULE
*****
 25 28 0 0 0
SMALL
GASTEIGER

@<TRIPOS>ATOM
      1 N         143.7846  139.5438  171.4690 N.pl3   1  UNL1       -0.3375
      2 C         143.0539  139.9955  170.2393 C.ar    1  UNL1        0.1567
      3 N         142.8197  139.1789  169.0030 N.ar    1  UNL1       -0.2245
      4 C         142.0501  140.0217  168.0297 C.ar    1  UNL1        0.0889
      5 C         141.5380  139.7440  166.6474 C.ar    1  UNL1        0.0151
      6 C         140.7844  140.8040  165.8999 C.ar    1  UNL1       -0.0232
      7 C         140.5431  142.1414  166.5345 C.ar    1  UNL1       -0.0241
      8 C         141.0552  142.4191  167.9168 C.ar    1  UNL1        0.0035
      9 C         141.8087  141.3592  168.6644 C.ar    1  UNL1        0.0494
     10 S         142.4291  141.3430  170.0300 S.2     1  UNL1       -0.0520
     11 C         139.8212  143.3285  165.9689 C.3     1  UNL1        0.0434
     12 C         139.1625  143.4711  164.6287 C.3     1  UNL1        0.0771
     13 N         139.0630  142.4620  163.5235 N.3     1  UNL1       -0.2683
     14 C         139.5975  141.0610  163.4851 C.3     1  UNL1        0.0771
     15 C         140.3637  140.3231  164.5427 C.3     1  UNL1        0.0434
     16 H         144.1617  138.6354  171.5118 H       1  UNL1        0.1442
     17 H         143.8872  140.1559  172.2333 H       1  UNL1        0.1442
     18 C         138.3323  142.9136  162.2938 C.3     1  UNL1        0.0992
     19 C         139.0935  143.4993  161.1416 C.ar    1  UNL1       -0.0060
     20 C         139.0152  142.8583  159.7876 C.ar    1  UNL1       -0.0006
     21 C         139.7763  143.4439  158.6354 C.ar    1  UNL1        0.0294
     22 C         140.6158  144.6705  158.8371 C.ar    1  UNL1        0.1401
     23 F         141.3771  145.2562  157.6848 F       1  UNL1       -0.2042
     24 C         140.6942  145.3115  160.1910 C.ar    1  UNL1        0.0294
     25 C         139.9330  144.7259  161.3432 C.ar    1  UNL1       -0.0006
@<TRIPOS>BOND
     1     1     2    1
     2     2     3   ar
     3     3     4   ar
     4     4     5   ar
     5     5     6   ar
     6     6     7   ar
     7     7     8   ar
     8     8     9   ar
     9     9    10   ar
    10     7    11    1
    11    11    12    1
    12    12    13    1
    13    13    18    1
    14    18    19    1
    15    19    20   ar
    16    20    21   ar
    17    21    22   ar
    18    22    23    1
    19    22    24   ar
    20    24    25   ar
    21    13    14    1
    22    14    15    1
    23    10     2   ar
    24    25    19   ar
    25     9     4   ar
    26    15     6    1
    27     1    16    1
    28     1    17    1
@<TRIPOS>MOLECULE
*****
 25 28 0 0 0
SMALL
GASTEIGER

@<TRIPOS>ATOM
      1 N         142.5215  140.6114  171.6399 N.pl3   1  UNL1       -0.3375
      2 C         142.0723  140.2664  170.2509 C.ar    1  UNL1        0.1567
      3 N         142.9479  139.7701  169.1387 N.ar    1  UNL1       -0.2245
      4 C         142.0853  139.5542  167.9308 C.ar    1  UNL1        0.0889
      5 C         142.4007  139.0740  166.5451 C.ar    1  UNL1        0.0151
      6 C         141.3071  138.9567  165.5250 C.ar    1  UNL1       -0.0232
      7 C         139.8984  139.3195  165.8906 C.ar    1  UNL1       -0.0241
      8 C         139.5830  139.7997  167.2762 C.ar    1  UNL1        0.0035
      9 C         140.6765  139.9170  168.2963 C.ar    1  UNL1        0.0494
     10 S         140.6685  140.3572  169.7302 S.2     1  UNL1       -0.0520
     11 C         138.6687  139.2761  165.0326 C.3     1  UNL1        0.0434
     12 C         138.5443  138.8590  163.5970 C.3     1  UNL1        0.0771
     13 N         139.6186  138.3825  162.6651 N.3     1  UNL1       -0.2683
     14 C         141.0828  138.2052  162.9384 C.3     1  UNL1        0.0771
     15 C         141.8343  138.4607  164.2112 C.3     1  UNL1        0.0434
     16 H         143.4697  140.5183  171.8879 H       1  UNL1        0.1442
     17 H         141.8682  140.9308  172.3034 H       1  UNL1        0.1442
     18 C         139.1694  138.0375  161.2762 C.3     1  UNL1        0.0992
     19 C         139.3432  139.0287  160.1637 C.ar    1  UNL1       -0.0060
     20 C         140.5426  138.9466  159.2667 C.ar    1  UNL1       -0.0006
     21 C         140.7165  139.9376  158.1543 C.ar    1  UNL1        0.0294
     22 C         139.6909  141.0109  157.9389 C.ar    1  UNL1        0.1401
     23 F         139.8647  142.0020  156.8265 F       1  UNL1       -0.2042
     24 C         138.4914  141.0930  158.8359 C.ar    1  UNL1        0.0294
     25 C         138.3176  140.1019  159.9483 C.ar    1  UNL1       -0.0006
@<TRIPOS>BOND
     1     1     2    1
     2     2     3   ar
     3     3     4   ar
     4     4     5   ar
     5     5     6   ar
     6     6     7   ar
     7     7     8   ar
     8     8     9   ar
     9     9    10   ar
    10     7    11    1
    11    11    12    1
    12    12    13    1
    13    13    18    1
    14    18    19    1
    15    19    20   ar
    16    20    21   ar
    17    21    22   ar
    18    22    23    1
    19    22    24   ar
    20    24    25   ar
    21    13    14    1
    22    14    15    1
    23    10     2   ar
    24    25    19   ar
    25     9     4   ar
    26    15     6    1
    27     1    16    1
    28     1    17    1
@<TRIPOS>MOLECULE
*****
 25 28 0 0 0
SMALL
GASTEIGER

@<TRIPOS>ATOM
      1 N         139.3557  139.5414  155.9670 N.pl3   1  UNL1       -0.3375
      2 C         139.2131  139.4952  157.4595 C.ar    1  UNL1        0.1567
      3 N         139.5802  138.3414  158.3451 N.ar    1  UNL1       -0.2245
      4 C         139.2724  138.7278  159.7613 C.ar    1  UNL1        0.0889
      5 C         139.4276  137.9915  161.0589 C.ar    1  UNL1        0.0151
      6 C         139.0254  138.6478  162.3464 C.ar    1  UNL1       -0.0232
      7 C         138.4681  140.0403  162.3363 C.ar    1  UNL1       -0.0241
      8 C         138.3129  140.7766  161.0387 C.ar    1  UNL1        0.0035
      9 C         138.7150  140.1204  159.7512 C.ar    1  UNL1        0.0494
     10 S         138.6784  140.5946  158.3286 S.2     1  UNL1       -0.0520
     11 C         138.0091  140.8725  163.4968 C.3     1  UNL1        0.0434
     12 C         137.9941  140.5175  164.9542 C.3     1  UNL1        0.0771
     13 N         138.4344  139.2428  165.6108 N.3     1  UNL1       -0.2683
     14 C         138.9985  138.0082  164.9724 C.3     1  UNL1        0.0771
     15 C         139.2615  137.7434  163.5196 C.3     1  UNL1        0.0434
     16 H         139.7193  138.7650  155.4830 H       1  UNL1        0.1442
     17 H         139.0857  140.3481  155.4715 H       1  UNL1        0.1442
     18 C         138.2919  139.1966  167.1033 C.3     1  UNL1        0.0992
     19 C         139.3551  139.7932  167.9772 C.ar    1  UNL1       -0.0060
     20 C         139.0087  140.2816  169.3526 C.ar    1  UNL1       -0.0006
     21 C         140.0718  140.8782  170.2265 C.ar    1  UNL1        0.0294
     22 C         141.4814  140.9865  169.7251 C.ar    1  UNL1        0.1401
     23 F         142.5446  141.5831  170.5990 F       1  UNL1       -0.2042
     24 C         141.8278  140.4981  168.3497 C.ar    1  UNL1        0.0294
     25 C         140.7647  139.9015  167.4758 C.ar    1  UNL1       -0.0006
@<TRIPOS>BOND
     1     1     2    1
     2     2     3   ar
     3     3     4   ar
     4     4     5   ar
     5     5     6   ar
     6     6     7   ar
     7     7     8   ar
     8     8     9   ar
     9     9    10   ar
    10     7    11    1
    11    11    12    1
    12    12    13    1
    13    13    18    1
    14    18    19    1
    15    19    20   ar
    16    20    21   ar
    17    21    22   ar
    18    22    23    1
    19    22    24   ar
    20    24    25   ar
    21    13    14    1
    22    14    15    1
    23    10     2   ar
    24    25    19   ar
    25     9     4   ar
    26    15     6    1
    27     1    16    1
    28     1    17    1
@<TRIPOS>MOLECULE
*****
 25 28 0 0 0
SMALL
GASTEIGER

@<TRIPOS>ATOM
      1 N         140.2374  142.4795  171.5601 N.pl3   1  UNL1       -0.3375
      2 C         140.0972  141.9245  170.1736 C.ar    1  UNL1        0.1567
      3 N         140.5092  142.6090  168.9040 N.ar    1  UNL1       -0.2245
      4 C         140.1870  141.6951  167.7591 C.ar    1  UNL1        0.0889
      5 C         140.3712  141.8391  166.2774 C.ar    1  UNL1        0.0151
      6 C         139.9442  140.7337  165.3576 C.ar    1  UNL1       -0.0232
      7 C         139.3332  139.4845  165.9196 C.ar    1  UNL1       -0.0241
      8 C         139.1490  139.3404  167.4012 C.ar    1  UNL1        0.0035
      9 C         139.5760  140.4457  168.3210 C.ar    1  UNL1        0.0494
     10 S         139.5205  140.5876  169.8133 S.2     1  UNL1       -0.0520
     11 C         138.8426  138.2715  165.1859 C.3     1  UNL1        0.0434
     12 C         138.8419  138.0084  163.7091 C.3     1  UNL1        0.0771
     13 N         139.3316  138.8932  162.6014 N.3     1  UNL1       -0.2683
     14 C         139.9430  140.2597  162.6966 C.3     1  UNL1        0.0771
     15 C         140.2156  141.0788  163.9233 C.3     1  UNL1        0.0434
     16 H         140.6307  143.3718  171.6957 H       1  UNL1        0.1442
     17 H         139.9361  141.9515  172.3345 H       1  UNL1        0.1442
     18 C         139.1914  138.3382  161.2149 C.3     1  UNL1        0.0992
     19 C         140.2904  138.5358  160.2132 C.ar    1  UNL1       -0.0060
     20 C         141.6935  138.1247  160.5484 C.ar    1  UNL1       -0.0006
     21 C         142.7924  138.3223  159.5468 C.ar    1  UNL1        0.0294
     22 C         142.4883  138.9309  158.2100 C.ar    1  UNL1        0.1401
     23 F         143.5873  139.1285  157.2083 F       1  UNL1       -0.2042
     24 C         141.0852  139.3420  157.8748 C.ar    1  UNL1        0.0294
     25 C         139.9863  139.1445  158.8764 C.ar    1  UNL1       -0.0006
@<TRIPOS>BOND
     1     1     2    1
     2     2     3   ar
     3     3     4   ar
     4     4     5   ar
     5     5     6   ar
     6     6     7   ar
     7     7     8   ar
     8     8     9   ar
     9     9    10   ar
    10     7    11    1
    11    11    12    1
    12    12    13    1
    13    13    18    1
    14    18    19    1
    15    19    20   ar
    16    20    21   ar
    17    21    22   ar
    18    22    23    1
    19    22    24   ar
    20    24    25   ar
    21    13    14    1
    22    14    15    1
    23    10     2   ar
    24    25    19   ar
    25     9     4   ar
    26    15     6    1
    27     1    16    1
    28     1    17    1
@<TRIPOS>MOLECULE
*****
 25 28 0 0 0
SMALL
GASTEIGER

@<TRIPOS>ATOM
      1 N         143.6609  139.7776  171.3857 N.pl3   1  UNL1       -0.3375
      2 C         142.8878  140.1650  170.1601 C.ar    1  UNL1        0.1567
      3 N         143.2396  141.2697  169.2083 N.ar    1  UNL1       -0.2245
      4 C         142.1964  141.3032  168.1311 C.ar    1  UNL1        0.0889
      5 C         142.0251  142.1808  166.9266 C.ar    1  UNL1        0.0151
      6 C         140.8572  141.9743  166.0082 C.ar    1  UNL1       -0.0232
      7 C         139.8607  140.8904  166.2942 C.ar    1  UNL1       -0.0241
      8 C         140.0319  140.0129  167.4986 C.ar    1  UNL1        0.0035
      9 C         141.1998  140.2193  168.4171 C.ar    1  UNL1        0.0494
     10 S         141.6271  139.5158  169.6711 S.2     1  UNL1       -0.0520
     11 C         138.6348  140.5175  165.5143 C.3     1  UNL1        0.0434
     12 C         138.1029  141.1365  164.2557 C.3     1  UNL1        0.0771
     13 N         138.6653  142.2811  163.4663 N.3     1  UNL1       -0.2683
     14 C         139.8987  143.0897  163.7404 C.3     1  UNL1        0.0771
     15 C         140.8742  142.9531  164.8717 C.3     1  UNL1        0.0434
     16 H         144.4811  140.2665  171.6254 H       1  UNL1        0.1442
     17 H         143.3482  139.0343  171.9505 H       1  UNL1        0.1442
     18 C         137.8922  142.6686  162.2407 C.3     1  UNL1        0.0992
     19 C         138.2929  142.1293  160.8995 C.ar    1  UNL1       -0.0060
     20 C         137.9387  140.7218  160.5208 C.ar    1  UNL1       -0.0006
     21 C         138.3392  140.1825  159.1798 C.ar    1  UNL1        0.0294
     22 C         139.0941  141.0507  158.2172 C.ar    1  UNL1        0.1401
     23 F         139.4947  140.5115  156.8760 F       1  UNL1       -0.2042
     24 C         139.4483  142.4583  158.5959 C.ar    1  UNL1        0.0294
     25 C         139.0477  142.9976  159.9370 C.ar    1  UNL1       -0.0006
@<TRIPOS>BOND
     1     1     2    1
     2     2     3   ar
     3     3     4   ar
     4     4     5   ar
     5     5     6   ar
     6     6     7   ar
     7     7     8   ar
     8     8     9   ar
     9     9    10   ar
    10     7    11    1
    11    11    12    1
    12    12    13    1
    13    13    18    1
    14    18    19    1
    15    19    20   ar
    16    20    21   ar
    17    21    22   ar
    18    22    23    1
    19    22    24   ar
    20    24    25   ar
    21    13    14    1
    22    14    15    1
    23    10     2   ar
    24    25    19   ar
    25     9     4   ar
    26    15     6    1
    27     1    16    1
    28     1    17    1
@<TRIPOS>MOLECULE
*****
 25 28 0 0 0
SMALL
GASTEIGER

@<TRIPOS>ATOM
      1 N         141.1497  146.1023  156.8964 N.pl3   1  UNL1       -0.3375
      2 C         141.3383  145.5144  158.2635 C.ar    1  UNL1        0.1567
      3 N         142.4427  144.5890  158.6807 N.ar    1  UNL1       -0.2245
      4 C         142.2425  144.2514  160.1283 C.ar    1  UNL1        0.0889
      5 C         143.0199  143.3839  161.0734 C.ar    1  UNL1        0.0151
      6 C         142.5690  143.2330  162.4962 C.ar    1  UNL1       -0.0232
      7 C         141.3409  143.9497  162.9737 C.ar    1  UNL1       -0.0241
      8 C         140.5636  144.8171  162.0287 C.ar    1  UNL1        0.0035
      9 C         141.0143  144.9680  160.6059 C.ar    1  UNL1        0.0494
     10 S         140.4555  145.7486  159.4534 S.2     1  UNL1       -0.0520
     11 C         140.7226  143.9369  164.3403 C.3     1  UNL1        0.0434
     12 C         141.1797  143.2041  165.5668 C.3     1  UNL1        0.0771
     13 N         142.3680  142.3035  165.7296 N.3     1  UNL1       -0.2683
     14 C         143.3927  141.9128  164.7062 C.3     1  UNL1        0.0771
     15 C         143.4822  142.3265  163.2671 C.3     1  UNL1        0.0434
     16 H         141.7859  145.8879  156.1763 H       1  UNL1        0.1442
     17 H         140.3898  146.7026  156.7193 H       1  UNL1        0.1442
     18 C         142.5565  141.7155  167.0966 C.3     1  UNL1        0.0992
     19 C         141.3642  141.2880  167.9003 C.ar    1  UNL1       -0.0060
     20 C         141.0890  141.9244  169.2304 C.ar    1  UNL1       -0.0006
     21 C         139.8968  141.4970  170.0340 C.ar    1  UNL1        0.0294
     22 C         138.9798  140.4331  169.5076 C.ar    1  UNL1        0.1401
     23 F         137.7875  140.0056  170.3112 F       1  UNL1       -0.2042
     24 C         139.2550  139.7966  168.1774 C.ar    1  UNL1        0.0294
     25 C         140.4472  140.2241  167.3738 C.ar    1  UNL1       -0.0006
@<TRIPOS>BOND
     1     1     2    1
     2     2     3   ar
     3     3     4   ar
     4     4     5   ar
     5     5     6   ar
     6     6     7   ar
     7     7     8   ar
     8     8     9   ar
     9     9    10   ar
    10     7    11    1
    11    11    12    1
    12    12    13    1
    13    13    18    1
    14    18    19    1
    15    19    20   ar
    16    20    21   ar
    17    21    22   ar
    18    22    23    1
    19    22    24   ar
    20    24    25   ar
    21    13    14    1
    22    14    15    1
    23    10     2   ar
    24    25    19   ar
    25     9     4   ar
    26    15     6    1
    27     1    16    1
    28     1    17    1
@<TRIPOS>MOLECULE
*****
 25 28 0 0 0
SMALL
GASTEIGER

@<TRIPOS>ATOM
      1 N         142.8068  138.1456  170.5804 N.pl3   1  UNL1       -0.3375
      2 C         142.4755  139.0830  169.4572 C.ar    1  UNL1        0.1567
      3 N         143.1713  139.1494  168.1299 N.ar    1  UNL1       -0.2245
      4 C         142.5160  140.2259  167.3165 C.ar    1  UNL1        0.0889
      5 C         142.7795  140.7382  165.9315 C.ar    1  UNL1        0.0151
      6 C         141.9421  141.8495  165.3710 C.ar    1  UNL1       -0.0232
      7 C         140.8415  142.4483  166.1954 C.ar    1  UNL1       -0.0241
      8 C         140.5780  141.9360  167.5803 C.ar    1  UNL1        0.0035
      9 C         141.4153  140.8248  168.1409 C.ar    1  UNL1        0.0494
     10 S         141.3903  140.1184  169.4639 S.2     1  UNL1       -0.0520
     11 C         139.8961  143.5546  165.8313 C.3     1  UNL1        0.0434
     12 C         139.8181  144.3351  164.5527 C.3     1  UNL1        0.0771
     13 N         140.6660  144.2022  163.3226 N.3     1  UNL1       -0.2683
     14 C         141.8015  143.2560  163.0671 C.3     1  UNL1        0.0771
     15 C         142.3695  142.2089  163.9787 C.3     1  UNL1        0.0434
     16 H         143.5412  137.4976  170.4804 H       1  UNL1        0.1442
     17 H         142.2899  138.1784  171.4176 H       1  UNL1        0.1442
     18 C         140.3347  145.1395  162.1994 C.3     1  UNL1        0.0992
     19 C         140.0537  144.5983  160.8289 C.ar    1  UNL1       -0.0060
     20 C         140.5938  145.3021  159.6193 C.ar    1  UNL1       -0.0006
     21 C         140.3128  144.7609  158.2489 C.ar    1  UNL1        0.0294
     22 C         139.4918  143.5159  158.0880 C.ar    1  UNL1        0.1401
     23 F         139.2107  142.9746  156.7175 F       1  UNL1       -0.2042
     24 C         138.9517  142.8121  159.2976 C.ar    1  UNL1        0.0294
     25 C         139.2327  143.3533  160.6680 C.ar    1  UNL1       -0.0006
@<TRIPOS>BOND
     1     1     2    1
     2     2     3   ar
     3     3     4   ar
     4     4     5   ar
     5     5     6   ar
     6     6     7   ar
     7     7     8   ar
     8     8     9   ar
     9     9    10   ar
    10     7    11    1
    11    11    12    1
    12    12    13    1
    13    13    18    1
    14    18    19    1
    15    19    20   ar
    16    20    21   ar
    17    21    22   ar
    18    22    23    1
    19    22    24   ar
    20    24    25   ar
    21    13    14    1
    22    14    15    1
    23    10     2   ar
    24    25    19   ar
    25     9     4   ar
    26    15     6    1
    27     1    16    1
    28     1    17    1
@<TRIPOS>MOLECULE
*****
 25 28 0 0 0
SMALL
GASTEIGER

@<TRIPOS>ATOM
      1 N         140.3289  138.0718  156.8934 N.pl3   1  UNL1       -0.3375
      2 C         140.6242  138.2631  158.3515 C.ar    1  UNL1        0.1567
      3 N         139.6082  138.4260  159.4430 N.ar    1  UNL1       -0.2245
      4 C         140.3436  138.5886  160.7402 C.ar    1  UNL1        0.0889
      5 C         139.8641  138.7855  162.1479 C.ar    1  UNL1        0.0151
      6 C         140.8552  138.9200  163.2658 C.ar    1  UNL1       -0.0232
      7 C         142.3255  138.8576  162.9761 C.ar    1  UNL1       -0.0241
      8 C         142.8050  138.6608  161.5685 C.ar    1  UNL1        0.0035
      9 C         141.8140  138.5263  160.4506 C.ar    1  UNL1        0.0494
     10 S         141.9874  138.3251  158.9743 S.2     1  UNL1       -0.0520
     11 C         143.4733  138.9683  163.9355 C.3     1  UNL1        0.0434
     12 C         143.4341  139.1687  165.4216 C.3     1  UNL1        0.0771
     13 N         142.2374  139.3079  166.3152 N.3     1  UNL1       -0.2683
     14 C         140.7844  139.2811  165.9436 C.3     1  UNL1        0.0771
     15 C         140.1693  139.1085  164.5864 C.3     1  UNL1        0.0434
     16 H         139.3961  138.0444  156.5795 H       1  UNL1        0.1442
     17 H         141.0677  137.9735  156.2502 H       1  UNL1        0.1442
     18 C         142.5328  139.4992  167.7733 C.3     1  UNL1        0.0992
     19 C         141.7165  140.4618  168.5840 C.ar    1  UNL1       -0.0060
     20 C         141.9568  141.9374  168.4615 C.ar    1  UNL1       -0.0006
     21 C         141.1406  142.9000  169.2721 C.ar    1  UNL1        0.0294
     22 C         140.0841  142.3871  170.2052 C.ar    1  UNL1        0.1401
     23 F         139.2678  143.3497  171.0159 F       1  UNL1       -0.2042
     24 C         139.8438  140.9115  170.3277 C.ar    1  UNL1        0.0294
     25 C         140.6600  139.9489  169.5171 C.ar    1  UNL1       -0.0006
@<TRIPOS>BOND
     1     1     2    1
     2     2     3   ar
     3     3     4   ar
     4     4     5   ar
     5     5     6   ar
     6     6     7   ar
     7     7     8   ar
     8     8     9   ar
     9     9    10   ar
    10     7    11    1
    11    11    12    1
    12    12    13    1
    13    13    18    1
    14    18    19    1
    15    19    20   ar
    16    20    21   ar
    17    21    22   ar
    18    22    23    1
    19    22    24   ar
    20    24    25   ar
    21    13    14    1
    22    14    15    1
    23    10     2   ar
    24    25    19   ar
    25     9     4   ar
    26    15     6    1
    27     1    16    1
    28     1    17    1
