@<TRIPOS>MOLECULE
*****
 32 36 0 0 0
SMALL
GASTEIGER

@<TRIPOS>ATOM
      1 N         142.8435  138.8839  163.4198 N.3     1  UNL1       -0.2726
      2 C         144.0202  139.1926  162.5423 C.3     1  UNL1        0.0721
      3 C         144.6590  140.4514  163.0496 C.3     1  UNL1        0.0190
      4 C         143.8772  140.9206  164.2406 C.3     1  UNL1        0.0201
      5 C         144.7162  142.1343  164.5107 C.3     1  UNL1        0.0061
      6 C         143.5394  141.8256  165.3882 C.3     1  UNL1        0.0237
      7 C         142.7551  139.9519  164.4694 C.3     1  UNL1        0.0724
      8 C         142.6651  142.1699  166.5574 C.ar    1  UNL1       -0.0225
      9 C         143.2311  142.1578  167.9465 C.ar    1  UNL1       -0.0043
     10 C         142.3568  142.5020  169.1156 C.ar    1  UNL1        0.0035
     11 C         140.9164  142.8583  168.8957 C.ar    1  UNL1        0.0714
     12 C         140.3504  142.8704  167.5067 C.ar    1  UNL1        0.0035
     13 C         141.2247  142.5261  166.3375 C.ar    1  UNL1       -0.0043
     14 C         140.0420  143.2025  170.0649 C.3     1  UNL1        0.4186
     15 F         139.1676  143.5468  171.2341 F       1  UNL1       -0.1659
     16 F         139.4579  141.8213  170.0347 F       1  UNL1       -0.1659
     17 F         140.6261  144.5838  170.0951 F       1  UNL1       -0.1659
     18 C         141.9176  137.7128  163.2734 C.3     1  UNL1        0.0730
     19 C         141.1779  137.1877  164.4680 C.3     1  UNL1        0.0294
     20 C         139.7600  137.6091  164.7171 C.3     1  UNL1        0.0666
     21 S         139.0112  138.3786  163.6696 S.3     1  UNL1       -0.0756
     22 C         140.2157  140.7262  161.7494 C.3     1  UNL1        0.1340
     23 N         139.3451  140.9321  162.9534 N.ar    1  UNL1       -0.2872
     24 C         138.7914  139.8530  163.8360 C.ar    1  UNL1        0.1933
     25 N         137.9793  140.5072  164.9143 N.ar    1  UNL1       -0.1221
     26 N         138.0311  141.9906  164.6980 N.ar    1  UNL1       -0.1266
     27 C         138.8751  142.2533  163.4861 C.ar    1  UNL1        0.1870
     28 C         139.1934  143.6005  162.9085 C.ar    1  UNL1        0.1472
     29 C         140.5501  144.2380  162.8533 C.ar    1  UNL1        0.0805
     30 S         140.4061  145.5783  162.1953 S.2     1  UNL1        0.0379
     31 N         138.9604  145.7691  161.8438 N.ar    1  UNL1       -0.1093
     32 N         138.2109  144.5468  162.2845 N.ar    1  UNL1       -0.1373
@<TRIPOS>BOND
     1    22    23    1
     2    23    24   ar
     3    24    21    1
     4    21    20    1
     5    20    19    1
     6    19    18    1
     7    18     1    1
     8     1     2    1
     9     2     3    1
    10     4     3    1
    11     4     5    1
    12     5     6    1
    13     6     8    1
    14     8     9   ar
    15     9    10   ar
    16    10    11   ar
    17    11    14    1
    18    14    15    1
    19    14    16    1
    20    14    17    1
    21    11    12   ar
    22    12    13   ar
    23     4     7    1
    24    24    25   ar
    25    25    26   ar
    26    26    27   ar
    27    27    28    1
    28    28    29   ar
    29    29    30   ar
    30    30    31   ar
    31    31    32   ar
    32    27    23   ar
    33    32    28   ar
    34     7     1    1
    35     6     4    1
    36    13     8   ar
@<TRIPOS>MOLECULE
*****
 32 36 0 0 0
SMALL
GASTEIGER

@<TRIPOS>ATOM
      1 N         144.1133  142.2879  162.9205 N.3     1  UNL1       -0.2726
      2 C         144.8357  141.0988  162.3600 C.3     1  UNL1        0.0721
      3 C         144.6947  139.9685  163.3359 C.3     1  UNL1        0.0190
      4 C         143.8852  140.4590  164.4996 C.3     1  UNL1        0.0201
      5 C         143.9148  139.1698  165.2657 C.3     1  UNL1        0.0061
      6 C         143.1924  140.3589  165.8262 C.3     1  UNL1        0.0237
      7 C         143.5259  141.8925  164.2428 C.3     1  UNL1        0.0724
      8 C         142.3753  140.9876  166.9158 C.ar    1  UNL1       -0.0225
      9 C         143.0016  141.9896  167.8398 C.ar    1  UNL1       -0.0043
     10 C         142.1846  142.6183  168.9293 C.ar    1  UNL1        0.0035
     11 C         140.7412  142.2451  169.0948 C.ar    1  UNL1        0.0714
     12 C         140.1149  141.2431  168.1708 C.ar    1  UNL1        0.0035
     13 C         140.9320  140.6143  167.0813 C.ar    1  UNL1       -0.0043
     14 C         139.9241  142.8738  170.1843 C.3     1  UNL1        0.4186
     15 F         139.1071  143.5026  171.2739 F       1  UNL1       -0.1659
     16 F         139.0780  141.6377  170.2631 F       1  UNL1       -0.1659
     17 F         140.7702  144.1099  170.1055 F       1  UNL1       -0.1659
     18 C         143.9985  143.6358  162.2724 C.3     1  UNL1        0.0730
     19 C         143.8838  144.8681  163.1199 C.3     1  UNL1        0.0294
     20 C         142.5602  145.2494  163.7140 C.3     1  UNL1        0.0666
     21 S         141.2909  144.9460  162.9746 S.3     1  UNL1       -0.0756
     22 C         140.8777  142.2153  161.2360 C.3     1  UNL1        0.1340
     23 N         140.2654  142.5104  162.5732 N.ar    1  UNL1       -0.2872
     24 C         140.4553  143.7655  163.3723 C.ar    1  UNL1        0.1933
     25 N         139.6628  143.6329  164.6390 N.ar    1  UNL1       -0.1221
     26 N         138.9831  142.2959  164.6227 N.ar    1  UNL1       -0.1266
     27 C         139.3555  141.6020  163.3460 C.ar    1  UNL1        0.1870
     28 C         138.8983  140.2392  162.9173 C.ar    1  UNL1        0.1472
     29 C         137.9799  139.9377  161.7702 C.ar    1  UNL1        0.0805
     30 S         137.7932  138.4508  161.7045 S.2     1  UNL1        0.0379
     31 N         138.5961  137.8335  162.8109 N.ar    1  UNL1       -0.1093
     32 N         139.2791  138.9387  163.5605 N.ar    1  UNL1       -0.1373
@<TRIPOS>BOND
     1    22    23    1
     2    23    24   ar
     3    24    21    1
     4    21    20    1
     5    20    19    1
     6    19    18    1
     7    18     1    1
     8     1     2    1
     9     2     3    1
    10     4     3    1
    11     4     5    1
    12     5     6    1
    13     6     8    1
    14     8     9   ar
    15     9    10   ar
    16    10    11   ar
    17    11    14    1
    18    14    15    1
    19    14    16    1
    20    14    17    1
    21    11    12   ar
    22    12    13   ar
    23     4     7    1
    24    24    25   ar
    25    25    26   ar
    26    26    27   ar
    27    27    28    1
    28    28    29   ar
    29    29    30   ar
    30    30    31   ar
    31    31    32   ar
    32    27    23   ar
    33    32    28   ar
    34     7     1    1
    35     6     4    1
    36    13     8   ar
@<TRIPOS>MOLECULE
*****
 32 36 0 0 0
SMALL
GASTEIGER

@<TRIPOS>ATOM
      1 N         138.4831  140.4151  163.5399 N.3     1  UNL1       -0.2726
      2 C         138.5574  139.1121  162.8004 C.3     1  UNL1        0.0721
      3 C         139.6383  138.2835  163.4289 C.3     1  UNL1        0.0190
      4 C         140.2320  139.0744  164.5568 C.3     1  UNL1        0.0201
      5 C         141.2326  138.0350  164.9674 C.3     1  UNL1        0.0061
      6 C         141.1582  139.3379  165.7069 C.3     1  UNL1        0.0237
      7 C         139.5180  140.3918  164.6254 C.3     1  UNL1        0.0724
      8 C         141.6501  140.2424  166.7978 C.ar    1  UNL1       -0.0225
      9 C         142.6813  141.2891  166.4963 C.ar    1  UNL1       -0.0043
     10 C         143.1731  142.1935  167.5872 C.ar    1  UNL1        0.0035
     11 C         142.6337  142.0512  168.9796 C.ar    1  UNL1        0.0714
     12 C         141.6024  141.0045  169.2811 C.ar    1  UNL1        0.0035
     13 C         141.1106  140.1000  168.1902 C.ar    1  UNL1       -0.0043
     14 C         143.1255  142.9556  170.0705 C.3     1  UNL1        0.4186
     15 F         143.6174  143.8601  171.1615 F       1  UNL1       -0.1659
     16 F         141.7944  143.6467  170.0977 F       1  UNL1       -0.1659
     17 F         144.4565  142.2646  170.0433 F       1  UNL1       -0.1659
     18 C         137.5394  141.5433  163.2455 C.3     1  UNL1        0.0730
     19 C         137.6818  142.8487  163.9706 C.3     1  UNL1        0.0294
     20 C         137.6596  144.1384  163.2049 C.3     1  UNL1        0.0666
     21 S         138.9129  144.6475  162.5570 S.3     1  UNL1       -0.0756
     22 C         141.4852  143.9643  164.4454 C.3     1  UNL1        0.1340
     23 N         141.2064  143.3827  163.0911 N.ar    1  UNL1       -0.2872
     24 C         140.0240  143.6968  162.2231 C.ar    1  UNL1        0.1933
     25 N         140.1479  142.8932  160.9626 N.ar    1  UNL1       -0.1221
     26 N         141.4068  142.0825  161.0515 N.ar    1  UNL1       -0.1266
     27 C         142.0610  142.3850  162.3670 C.ar    1  UNL1        0.1870
     28 C         143.3445  141.7936  162.8701 C.ar    1  UNL1        0.1472
     29 C         144.6197  142.5413  163.1243 C.ar    1  UNL1        0.0805
     30 S         145.6414  141.5606  163.6186 S.2     1  UNL1        0.0379
     31 N         144.9975  140.2068  163.6699 N.ar    1  UNL1       -0.1093
     32 N         143.5779  140.3508  163.2073 N.ar    1  UNL1       -0.1373
@<TRIPOS>BOND
     1    22    23    1
     2    23    24   ar
     3    24    21    1
     4    21    20    1
     5    20    19    1
     6    19    18    1
     7    18     1    1
     8     1     2    1
     9     2     3    1
    10     4     3    1
    11     4     5    1
    12     5     6    1
    13     6     8    1
    14     8     9   ar
    15     9    10   ar
    16    10    11   ar
    17    11    14    1
    18    14    15    1
    19    14    16    1
    20    14    17    1
    21    11    12   ar
    22    12    13   ar
    23     4     7    1
    24    24    25   ar
    25    25    26   ar
    26    26    27   ar
    27    27    28    1
    28    28    29   ar
    29    29    30   ar
    30    30    31   ar
    31    31    32   ar
    32    27    23   ar
    33    32    28   ar
    34     7     1    1
    35     6     4    1
    36    13     8   ar
@<TRIPOS>MOLECULE
*****
 32 36 0 0 0
SMALL
GASTEIGER

@<TRIPOS>ATOM
      1 N         138.7097  140.2473  162.4643 N.3     1  UNL1       -0.2726
      2 C         138.8524  139.0662  161.5507 C.3     1  UNL1        0.0721
      3 C         139.6580  138.0221  162.2654 C.3     1  UNL1        0.0190
      4 C         140.0131  138.5579  163.6207 C.3     1  UNL1        0.0201
      5 C         140.7779  137.3489  164.0717 C.3     1  UNL1        0.0061
      6 C         140.6352  138.5299  164.9853 C.3     1  UNL1        0.0237
      7 C         139.4271  139.9331  163.7436 C.3     1  UNL1        0.0724
      8 C         140.9119  139.1957  166.3007 C.ar    1  UNL1       -0.0225
      9 C         139.7781  139.7336  167.1222 C.ar    1  UNL1       -0.0043
     10 C         140.0548  140.3994  168.4376 C.ar    1  UNL1        0.0035
     11 C         141.4654  140.5273  168.9313 C.ar    1  UNL1        0.0714
     12 C         142.5993  139.9894  168.1097 C.ar    1  UNL1        0.0035
     13 C         142.3226  139.3236  166.7944 C.ar    1  UNL1       -0.0043
     14 C         141.7422  141.1931  170.2466 C.3     1  UNL1        0.4186
     15 F         142.0190  141.8589  171.5620 F       1  UNL1       -0.1659
     16 F         140.2901  141.0847  170.6070 F       1  UNL1       -0.1659
     17 F         143.1942  141.3014  169.8863 F       1  UNL1       -0.1659
     18 C         137.9780  141.5193  162.1532 C.3     1  UNL1        0.0730
     19 C         137.5379  142.4229  163.2667 C.3     1  UNL1        0.0294
     20 C         137.7001  143.9084  163.1358 C.3     1  UNL1        0.0666
     21 S         138.7763  144.6159  163.9047 S.3     1  UNL1       -0.0756
     22 C         141.2600  143.4695  162.1252 C.3     1  UNL1        0.1340
     23 N         141.0955  143.3204  163.6087 N.ar    1  UNL1       -0.2872
     24 C         139.9539  143.8473  164.4266 C.ar    1  UNL1        0.1933
     25 N         140.1966  143.4707  165.8582 N.ar    1  UNL1       -0.1221
     26 N         141.4883  142.7110  165.9250 N.ar    1  UNL1       -0.1266
     27 C         142.0439  142.6181  164.5348 C.ar    1  UNL1        0.1870
     28 C         143.3232  141.9416  164.1400 C.ar    1  UNL1        0.1472
     29 C         144.6984  142.5334  164.2327 C.ar    1  UNL1        0.0805
     30 S         145.6770  141.5122  163.7331 S.2     1  UNL1        0.0379
     31 N         144.9066  140.2894  163.3317 N.ar    1  UNL1       -0.1093
     32 N         143.4518  140.5548  163.5832 N.ar    1  UNL1       -0.1373
@<TRIPOS>BOND
     1    22    23    1
     2    23    24   ar
     3    24    21    1
     4    21    20    1
     5    20    19    1
     6    19    18    1
     7    18     1    1
     8     1     2    1
     9     2     3    1
    10     4     3    1
    11     4     5    1
    12     5     6    1
    13     6     8    1
    14     8     9   ar
    15     9    10   ar
    16    10    11   ar
    17    11    14    1
    18    14    15    1
    19    14    16    1
    20    14    17    1
    21    11    12   ar
    22    12    13   ar
    23     4     7    1
    24    24    25   ar
    25    25    26   ar
    26    26    27   ar
    27    27    28    1
    28    28    29   ar
    29    29    30   ar
    30    30    31   ar
    31    31    32   ar
    32    27    23   ar
    33    32    28   ar
    34     7     1    1
    35     6     4    1
    36    13     8   ar
@<TRIPOS>MOLECULE
*****
 32 36 0 0 0
SMALL
GASTEIGER

@<TRIPOS>ATOM
      1 N         140.7567  138.1546  162.8965 N.3     1  UNL1       -0.2726
      2 C         142.0212  137.7573  162.1943 C.3     1  UNL1        0.0721
      3 C         143.1777  138.3050  162.9771 C.3     1  UNL1        0.0190
      4 C         142.6278  139.0407  164.1631 C.3     1  UNL1        0.0201
      5 C         143.9573  139.4525  164.7223 C.3     1  UNL1        0.0061
      6 C         142.6927  139.8497  165.4245 C.3     1  UNL1        0.0237
      7 C         141.1315  138.9477  164.1132 C.3     1  UNL1        0.0724
      8 C         142.0001  140.5462  166.5582 C.ar    1  UNL1       -0.0225
      9 C         141.7059  139.8029  167.8274 C.ar    1  UNL1       -0.0043
     10 C         141.0133  140.4993  168.9611 C.ar    1  UNL1        0.0035
     11 C         140.6148  141.9390  168.8255 C.ar    1  UNL1        0.0714
     12 C         140.9090  142.6823  167.5562 C.ar    1  UNL1        0.0035
     13 C         141.6016  141.9859  166.4225 C.ar    1  UNL1       -0.0043
     14 C         139.9222  142.6355  169.9591 C.3     1  UNL1        0.4186
     15 F         139.2295  143.3320  171.0928 F       1  UNL1       -0.1659
     16 F         139.0693  141.4221  170.1835 F       1  UNL1       -0.1659
     17 F         140.7750  143.8488  169.7348 F       1  UNL1       -0.1659
     18 C         139.3620  137.8178  162.4588 C.3     1  UNL1        0.0730
     19 C         138.8055  138.4165  161.2011 C.3     1  UNL1        0.0294
     20 C         137.9083  139.6164  161.2748 C.3     1  UNL1        0.0666
     21 S         138.2087  140.8296  160.4454 S.3     1  UNL1       -0.0756
     22 C         141.3836  141.1534  161.1269 C.3     1  UNL1        0.1340
     23 N         140.3171  142.1753  161.3881 N.ar    1  UNL1       -0.2872
     24 C         138.8577  142.0264  161.0749 C.ar    1  UNL1        0.1933
     25 N         138.1613  143.2846  161.5017 N.ar    1  UNL1       -0.1221
     26 N         139.1903  144.2110  162.0787 N.ar    1  UNL1       -0.1266
     27 C         140.5226  143.5255  162.0086 C.ar    1  UNL1        0.1870
     28 C         141.8308  144.0908  162.4766 C.ar    1  UNL1        0.1472
     29 C         142.1133  144.6469  163.8408 C.ar    1  UNL1        0.0805
     30 S         143.5432  145.0991  163.8700 S.2     1  UNL1        0.0379
     31 N         144.1444  144.8224  162.5239 N.ar    1  UNL1       -0.1093
     32 N         143.0861  144.1992  161.6627 N.ar    1  UNL1       -0.1373
@<TRIPOS>BOND
     1    22    23    1
     2    23    24   ar
     3    24    21    1
     4    21    20    1
     5    20    19    1
     6    19    18    1
     7    18     1    1
     8     1     2    1
     9     2     3    1
    10     4     3    1
    11     4     5    1
    12     5     6    1
    13     6     8    1
    14     8     9   ar
    15     9    10   ar
    16    10    11   ar
    17    11    14    1
    18    14    15    1
    19    14    16    1
    20    14    17    1
    21    11    12   ar
    22    12    13   ar
    23     4     7    1
    24    24    25   ar
    25    25    26   ar
    26    26    27   ar
    27    27    28    1
    28    28    29   ar
    29    29    30   ar
    30    30    31   ar
    31    31    32   ar
    32    27    23   ar
    33    32    28   ar
    34     7     1    1
    35     6     4    1
    36    13     8   ar
@<TRIPOS>MOLECULE
*****
 32 36 0 0 0
SMALL
GASTEIGER

@<TRIPOS>ATOM
      1 N         143.7440  143.3365  163.7118 N.3     1  UNL1       -0.2726
      2 C         143.6052  144.7994  163.4106 C.3     1  UNL1        0.0721
      3 C         142.1967  145.2063  163.7277 C.3     1  UNL1        0.0190
      4 C         141.4650  143.9949  164.2249 C.3     1  UNL1        0.0201
      5 C         140.1521  144.6852  164.4478 C.3     1  UNL1        0.0061
      6 C         140.2909  143.2223  164.7490 C.3     1  UNL1        0.0237
      7 C         142.4213  142.8393  164.2150 C.3     1  UNL1        0.0724
      8 C         139.6932  141.9317  165.2255 C.ar    1  UNL1       -0.0225
      9 C         138.6823  141.2159  164.3794 C.ar    1  UNL1       -0.0043
     10 C         138.0845  139.9253  164.8559 C.ar    1  UNL1        0.0035
     11 C         138.4977  139.3505  166.1784 C.ar    1  UNL1        0.0714
     12 C         139.5086  140.0664  167.0244 C.ar    1  UNL1        0.0035
     13 C         140.1063  141.3570  166.5479 C.ar    1  UNL1       -0.0043
     14 C         137.9000  138.0599  166.6548 C.3     1  UNL1        0.4186
     15 F         137.3022  136.7692  167.1313 F       1  UNL1       -0.1659
     16 F         137.3456  138.7613  167.8592 F       1  UNL1       -0.1659
     17 F         138.4544  137.3585  165.4504 F       1  UNL1       -0.1659
     18 C         144.9872  142.5150  163.5398 C.3     1  UNL1        0.0730
     19 C         144.9193  141.1889  162.8421 C.3     1  UNL1        0.0294
     20 C         144.6880  139.9358  163.6336 C.3     1  UNL1        0.0666
     21 S         143.8325  138.8401  163.0702 S.3     1  UNL1       -0.0756
     22 C         140.8730  139.6870  161.9869 C.3     1  UNL1        0.1340
     23 N         142.0395  139.2787  161.1369 N.ar    1  UNL1       -0.2872
     24 C         143.3998  138.8894  161.6348 C.ar    1  UNL1        0.1933
     25 N         144.2515  138.5580  160.4453 N.ar    1  UNL1       -0.1221
     26 N         143.4176  138.7425  159.2123 N.ar    1  UNL1       -0.1266
     27 C         142.0504  139.1879  159.6396 C.ar    1  UNL1        0.1870
     28 C         140.8968  139.4896  158.7295 C.ar    1  UNL1        0.1472
     29 C         140.6229  140.8031  158.0590 C.ar    1  UNL1        0.0805
     30 S         139.3714  140.6561  157.2452 S.2     1  UNL1        0.0379
     31 N         138.8719  139.2516  157.4129 N.ar    1  UNL1       -0.1093
     32 N         139.8147  138.5307  158.3302 N.ar    1  UNL1       -0.1373
@<TRIPOS>BOND
     1    22    23    1
     2    23    24   ar
     3    24    21    1
     4    21    20    1
     5    20    19    1
     6    19    18    1
     7    18     1    1
     8     1     2    1
     9     2     3    1
    10     4     3    1
    11     4     5    1
    12     5     6    1
    13     6     8    1
    14     8     9   ar
    15     9    10   ar
    16    10    11   ar
    17    11    14    1
    18    14    15    1
    19    14    16    1
    20    14    17    1
    21    11    12   ar
    22    12    13   ar
    23     4     7    1
    24    24    25   ar
    25    25    26   ar
    26    26    27   ar
    27    27    28    1
    28    28    29   ar
    29    29    30   ar
    30    30    31   ar
    31    31    32   ar
    32    27    23   ar
    33    32    28   ar
    34     7     1    1
    35     6     4    1
    36    13     8   ar
@<TRIPOS>MOLECULE
*****
 32 36 0 0 0
SMALL
GASTEIGER

@<TRIPOS>ATOM
      1 N         142.3248  138.4510  163.6103 N.3     1  UNL1       -0.2726
      2 C         143.5139  138.6351  162.7146 C.3     1  UNL1        0.0721
      3 C         144.2631  139.8475  163.1822 C.3     1  UNL1        0.0190
      4 C         143.5370  140.4129  164.3668 C.3     1  UNL1        0.0201
      5 C         144.4792  141.5572  164.5967 C.3     1  UNL1        0.0061
      6 C         143.2901  141.3732  165.4924 C.3     1  UNL1        0.0237
      7 C         142.3391  139.5498  164.6314 C.3     1  UNL1        0.0724
      8 C         142.4610  141.8213  166.6593 C.ar    1  UNL1       -0.0225
      9 C         141.1593  142.5294  166.4265 C.ar    1  UNL1       -0.0043
     10 C         140.3302  142.9776  167.5934 C.ar    1  UNL1        0.0035
     11 C         140.8028  142.7176  168.9931 C.ar    1  UNL1        0.0714
     12 C         142.1045  142.0095  169.2258 C.ar    1  UNL1        0.0035
     13 C         142.9336  141.5614  168.0589 C.ar    1  UNL1       -0.0043
     14 C         139.9737  143.1658  170.1600 C.3     1  UNL1        0.4186
     15 F         139.1445  143.6140  171.3270 F       1  UNL1       -0.1659
     16 F         139.6472  141.7365  170.4770 F       1  UNL1       -0.1659
     17 F         140.3002  144.5951  169.8431 F       1  UNL1       -0.1659
     18 C         141.3011  137.3599  163.5036 C.3     1  UNL1        0.0730
     19 C         140.0052  137.6142  162.7924 C.3     1  UNL1        0.0294
     20 C         139.0848  138.6963  163.2743 C.3     1  UNL1        0.0666
     21 S         138.1116  139.3307  162.3256 S.3     1  UNL1       -0.0756
     22 C         140.5531  140.5360  160.5267 C.3     1  UNL1        0.1340
     23 N         139.4068  141.3190  161.0949 N.ar    1  UNL1       -0.2872
     24 C         138.2845  140.7650  161.9217 C.ar    1  UNL1        0.1933
     25 N         137.3655  141.8970  162.2739 N.ar    1  UNL1       -0.1221
     26 N         137.9198  143.1506  161.6646 N.ar    1  UNL1       -0.1266
     27 C         139.1814  142.7935  160.9360 C.ar    1  UNL1        0.1870
     28 C         140.0627  143.7438  160.1810 C.ar    1  UNL1        0.1472
     29 C         139.8712  144.1840  158.7598 C.ar    1  UNL1        0.0805
     30 S         140.9804  145.1331  158.4151 S.2     1  UNL1        0.0379
     31 N         141.8575  145.2794  159.6231 N.ar    1  UNL1       -0.1093
     32 N         141.2903  144.4208  160.7145 N.ar    1  UNL1       -0.1373
@<TRIPOS>BOND
     1    22    23    1
     2    23    24   ar
     3    24    21    1
     4    21    20    1
     5    20    19    1
     6    19    18    1
     7    18     1    1
     8     1     2    1
     9     2     3    1
    10     4     3    1
    11     4     5    1
    12     5     6    1
    13     6     8    1
    14     8     9   ar
    15     9    10   ar
    16    10    11   ar
    17    11    14    1
    18    14    15    1
    19    14    16    1
    20    14    17    1
    21    11    12   ar
    22    12    13   ar
    23     4     7    1
    24    24    25   ar
    25    25    26   ar
    26    26    27   ar
    27    27    28    1
    28    28    29   ar
    29    29    30   ar
    30    30    31   ar
    31    31    32   ar
    32    27    23   ar
    33    32    28   ar
    34     7     1    1
    35     6     4    1
    36    13     8   ar
@<TRIPOS>MOLECULE
*****
 32 36 0 0 0
SMALL
GASTEIGER

@<TRIPOS>ATOM
      1 N         138.0273  141.4004  162.2310 N.3     1  UNL1       -0.2726
      2 C         137.6313  140.3354  161.2517 C.3     1  UNL1        0.0721
      3 C         137.9594  139.0032  161.8579 C.3     1  UNL1        0.0190
      4 C         138.5582  139.2448  163.2119 C.3     1  UNL1        0.0201
      5 C         138.7704  137.7988  163.5498 C.3     1  UNL1        0.0061
      6 C         139.1664  138.8638  164.5291 C.3     1  UNL1        0.0237
      7 C         138.6001  140.7263  163.4424 C.3     1  UNL1        0.0724
      8 C         139.7461  139.2587  165.8549 C.ar    1  UNL1       -0.0225
      9 C         138.8392  139.5418  167.0157 C.ar    1  UNL1       -0.0043
     10 C         139.4189  139.9367  168.3415 C.ar    1  UNL1        0.0035
     11 C         140.9056  140.0485  168.5066 C.ar    1  UNL1        0.0714
     12 C         141.8125  139.7655  167.3458 C.ar    1  UNL1        0.0035
     13 C         141.2328  139.3706  166.0200 C.ar    1  UNL1       -0.0043
     14 C         141.4853  140.4435  169.8325 C.3     1  UNL1        0.4186
     15 F         142.0651  140.8384  171.1584 F       1  UNL1       -0.1659
     16 F         140.4300  141.4992  169.9794 F       1  UNL1       -0.1659
     17 F         142.5406  139.3877  169.6855 F       1  UNL1       -0.1659
     18 C         137.8769  142.8797  162.0336 C.3     1  UNL1        0.0730
     19 C         137.6994  143.7805  163.2198 C.3     1  UNL1        0.0294
     20 C         138.7566  144.7883  163.5612 C.3     1  UNL1        0.0666
     21 S         139.6813  145.2958  162.4948 S.3     1  UNL1       -0.0756
     22 C         141.1566  143.1742  164.4877 C.3     1  UNL1        0.1340
     23 N         141.6549  143.6136  163.1428 N.ar    1  UNL1       -0.2872
     24 C         140.9768  144.5888  162.2268 C.ar    1  UNL1        0.1933
     25 N         141.8215  144.7328  160.9956 N.ar    1  UNL1       -0.1221
     26 N         143.0218  143.8466  161.1508 N.ar    1  UNL1       -0.1266
     27 C         142.9189  143.1549  162.4778 C.ar    1  UNL1        0.1870
     28 C         143.9064  142.1763  163.0409 C.ar    1  UNL1        0.1472
     29 C         143.6483  140.7253  163.3206 C.ar    1  UNL1        0.0805
     30 S         144.9078  140.1291  163.8758 S.2     1  UNL1        0.0379
     31 N         145.9443  141.2116  163.9391 N.ar    1  UNL1       -0.1093
     32 N         145.3254  142.4768  163.4231 N.ar    1  UNL1       -0.1373
@<TRIPOS>BOND
     1    22    23    1
     2    23    24   ar
     3    24    21    1
     4    21    20    1
     5    20    19    1
     6    19    18    1
     7    18     1    1
     8     1     2    1
     9     2     3    1
    10     4     3    1
    11     4     5    1
    12     5     6    1
    13     6     8    1
    14     8     9   ar
    15     9    10   ar
    16    10    11   ar
    17    11    14    1
    18    14    15    1
    19    14    16    1
    20    14    17    1
    21    11    12   ar
    22    12    13   ar
    23     4     7    1
    24    24    25   ar
    25    25    26   ar
    26    26    27   ar
    27    27    28    1
    28    28    29   ar
    29    29    30   ar
    30    30    31   ar
    31    31    32   ar
    32    27    23   ar
    33    32    28   ar
    34     7     1    1
    35     6     4    1
    36    13     8   ar
@<TRIPOS>MOLECULE
*****
 32 36 0 0 0
SMALL
GASTEIGER

@<TRIPOS>ATOM
      1 N         138.0028  141.4751  162.6029 N.3     1  UNL1       -0.2726
      2 C         137.6317  140.4193  161.6042 C.3     1  UNL1        0.0721
      3 C         138.0257  139.0871  162.1700 C.3     1  UNL1        0.0190
      4 C         138.6403  139.3196  163.5184 C.3     1  UNL1        0.0201
      5 C         138.9179  137.8757  163.8152 C.3     1  UNL1        0.0061
      6 C         139.2891  138.9315  164.8140 C.3     1  UNL1        0.0237
      7 C         138.6262  140.7954  163.7860 C.3     1  UNL1        0.0724
      8 C         139.8779  139.3170  166.1386 C.ar    1  UNL1       -0.0225
      9 C         141.3663  139.4140  166.2980 C.ar    1  UNL1       -0.0043
     10 C         141.9551  139.7995  167.6227 C.ar    1  UNL1        0.0035
     11 C         141.0556  140.0881  168.7878 C.ar    1  UNL1        0.0714
     12 C         139.5672  139.9912  168.6283 C.ar    1  UNL1        0.0035
     13 C         138.9784  139.6056  167.3037 C.ar    1  UNL1       -0.0043
     14 C         141.6444  140.4737  170.1124 C.3     1  UNL1        0.4186
     15 F         142.2332  140.8592  171.4371 F       1  UNL1       -0.1659
     16 F         142.9868  140.6454  169.4657 F       1  UNL1       -0.1659
     17 F         140.3019  140.3019  170.7591 F       1  UNL1       -0.1659
     18 C         137.7883  142.9513  162.4462 C.3     1  UNL1        0.0730
     19 C         138.3555  143.9032  163.4573 C.3     1  UNL1        0.0294
     20 C         139.1072  145.1194  163.0034 C.3     1  UNL1        0.0666
     21 S         140.5777  145.0303  162.7214 S.3     1  UNL1       -0.0756
     22 C         141.0656  142.4714  160.7558 C.3     1  UNL1        0.1340
     23 N         141.5581  142.6064  162.1662 N.ar    1  UNL1       -0.2872
     24 C         141.3339  143.7826  163.0697 C.ar    1  UNL1        0.1933
     25 N         141.9985  143.4920  164.3826 N.ar    1  UNL1       -0.1221
     26 N         142.6336  142.1362  164.2906 N.ar    1  UNL1       -0.1266
     27 C         142.3614  141.5888  162.9208 C.ar    1  UNL1        0.1870
     28 C         142.8132  140.2576  162.3975 C.ar    1  UNL1        0.1472
     29 C         143.9058  140.0289  161.3955 C.ar    1  UNL1        0.0805
     30 S         144.0196  138.5514  161.1629 S.2     1  UNL1        0.0379
     31 N         142.9973  137.8670  162.0213 N.ar    1  UNL1       -0.1093
     32 N         142.2518  138.9215  162.7842 N.ar    1  UNL1       -0.1373
@<TRIPOS>BOND
     1    22    23    1
     2    23    24   ar
     3    24    21    1
     4    21    20    1
     5    20    19    1
     6    19    18    1
     7    18     1    1
     8     1     2    1
     9     2     3    1
    10     4     3    1
    11     4     5    1
    12     5     6    1
    13     6     8    1
    14     8     9   ar
    15     9    10   ar
    16    10    11   ar
    17    11    14    1
    18    14    15    1
    19    14    16    1
    20    14    17    1
    21    11    12   ar
    22    12    13   ar
    23     4     7    1
    24    24    25   ar
    25    25    26   ar
    26    26    27   ar
    27    27    28    1
    28    28    29   ar
    29    29    30   ar
    30    30    31   ar
    31    31    32   ar
    32    27    23   ar
    33    32    28   ar
    34     7     1    1
    35     6     4    1
    36    13     8   ar
