@<TRIPOS>MOLECULE
*****
 25 27 0 0 0
SMALL
GASTEIGER

@<TRIPOS>ATOM
      1 C         140.7281  145.4128  162.9065 C.3     1  UNL1        0.0532
      2 C         141.2887  144.2607  163.6864 C.ar    1  UNL1        0.0761
      3 N         140.3665  143.2381  164.2811 N.ar    1  UNL1       -0.2298
      4 C         140.9271  142.0860  165.0610 C.ar    1  UNL1        0.1650
      5 N         142.4100  141.9564  165.2463 N.ar    1  UNL1       -0.1918
      6 C         143.3322  142.9791  164.6516 C.ar    1  UNL1        0.2382
      7 C         142.7716  144.1312  163.8717 C.ar    1  UNL1        0.1242
      8 CL        143.6939  145.1539  163.2770 Cl      1  UNL1       -0.0761
      9 C         140.0048  141.0633  165.6557 C.ar    1  UNL1        0.0360
     10 C         140.0808  140.7461  167.1198 C.ar    1  UNL1        0.0054
     11 C         139.1586  139.7235  167.7145 C.ar    1  UNL1        0.0297
     12 C         138.1602  139.0180  166.8451 C.ar    1  UNL1        0.1401
     13 F         137.2380  137.9955  167.4398 F       1  UNL1       -0.2042
     14 C         138.0842  139.3353  165.3810 C.ar    1  UNL1        0.0297
     15 C         139.0065  140.3579  164.7863 C.ar    1  UNL1        0.0054
     16 O         144.8151  142.8496  164.8368 O.3     1  UNL1       -0.4596
     17 C         145.6049  141.9351  163.9481 C.3     1  UNL1        0.2086
     18 C         145.3399  140.4588  163.9659 C.3     1  UNL1        0.0647
     19 C         144.4582  139.8424  162.9206 C.3     1  UNL1        0.0759
     20 N         143.3041  138.9758  163.3290 N.3     1  UNL1       -0.2726
     21 C         142.4068  138.3804  162.2847 C.3     1  UNL1        0.0721
     22 C         141.2527  137.5137  162.6931 C.3     1  UNL1        0.0174
     23 C         140.9957  137.2425  164.1459 C.3     1  UNL1        0.0029
     24 C         141.8928  137.8379  165.1901 C.3     1  UNL1        0.0174
     25 C         143.0471  138.7045  164.7818 C.3     1  UNL1        0.0721
@<TRIPOS>BOND
     1     1     2    1
     2     2     3   ar
     3     3     4   ar
     4     4     9    1
     5     9    10   ar
     6    10    11   ar
     7    11    12   ar
     8    12    13    1
     9    12    14   ar
    10    14    15   ar
    11     4     5   ar
    12     5     6   ar
    13     6    16    1
    14    16    17    1
    15    17    18    1
    16    18    19    1
    17    19    20    1
    18    20    21    1
    19    21    22    1
    20    22    23    1
    21    23    24    1
    22    24    25    1
    23     6     7   ar
    24     7     8    1
    25     7     2   ar
    26    15     9   ar
    27    25    20    1
@<TRIPOS>MOLECULE
*****
 25 27 0 0 0
SMALL
GASTEIGER

@<TRIPOS>ATOM
      1 C         143.6752  144.7486  163.2062 C.3     1  UNL1        0.0532
      2 C         142.5121  144.2138  163.9880 C.ar    1  UNL1        0.0761
      3 N         142.7339  143.1722  165.0443 N.ar    1  UNL1       -0.2298
      4 C         141.5708  142.6374  165.8262 C.ar    1  UNL1        0.1650
      5 N         140.1860  143.1442  165.5517 N.ar    1  UNL1       -0.1918
      6 C         139.9642  144.1858  164.4954 C.ar    1  UNL1        0.2382
      7 C         141.1273  144.7206  163.7136 C.ar    1  UNL1        0.1242
      8 CL        140.9055  145.7623  162.6573 Cl      1  UNL1       -0.0761
      9 C         141.7927  141.5957  166.8825 C.ar    1  UNL1        0.0360
     10 C         141.2718  141.8139  168.2721 C.ar    1  UNL1        0.0054
     11 C         141.4936  140.7724  169.3284 C.ar    1  UNL1        0.0297
     12 C         142.2363  139.5124  168.9952 C.ar    1  UNL1        0.1401
     13 F         142.4581  138.4708  170.0515 F       1  UNL1       -0.2042
     14 C         142.7572  139.2942  167.6055 C.ar    1  UNL1        0.0297
     15 C         142.5353  140.3358  166.5492 C.ar    1  UNL1        0.0054
     16 O         138.5794  144.6926  164.2209 O.3     1  UNL1       -0.4596
     17 C         137.7152  144.0023  163.2077 C.3     1  UNL1        0.2086
     18 C         138.0999  142.6470  162.6926 C.3     1  UNL1        0.0647
     19 C         137.3008  141.4404  163.0868 C.3     1  UNL1        0.0759
     20 N         137.9814  140.2659  163.7251 N.3     1  UNL1       -0.2726
     21 C         138.3791  139.0848  162.8903 C.3     1  UNL1        0.0721
     22 C         139.0597  137.9104  163.5287 C.3     1  UNL1        0.0174
     23 C         139.3426  137.9170  165.0017 C.3     1  UNL1        0.0029
     24 C         138.9450  139.0981  165.8365 C.3     1  UNL1        0.0174
     25 C         138.2643  140.2726  165.1981 C.3     1  UNL1        0.0721
@<TRIPOS>BOND
     1     1     2    1
     2     2     3   ar
     3     3     4   ar
     4     4     9    1
     5     9    10   ar
     6    10    11   ar
     7    11    12   ar
     8    12    13    1
     9    12    14   ar
    10    14    15   ar
    11     4     5   ar
    12     5     6   ar
    13     6    16    1
    14    16    17    1
    15    17    18    1
    16    18    19    1
    17    19    20    1
    18    20    21    1
    19    21    22    1
    20    22    23    1
    21    23    24    1
    22    24    25    1
    23     6     7   ar
    24     7     8    1
    25     7     2   ar
    26    15     9   ar
    27    25    20    1
@<TRIPOS>MOLECULE
*****
 25 27 0 0 0
SMALL
GASTEIGER

@<TRIPOS>ATOM
      1 C         143.6796  144.7793  163.2233 C.3     1  UNL1        0.0532
      2 C         142.5276  144.2263  164.0089 C.ar    1  UNL1        0.0761
      3 N         142.7656  143.1681  165.0450 N.ar    1  UNL1       -0.2298
      4 C         141.6136  142.6151  165.8306 C.ar    1  UNL1        0.1650
      5 N         140.2237  143.1203  165.5802 N.ar    1  UNL1       -0.1918
      6 C         139.9857  144.1786  164.5441 C.ar    1  UNL1        0.2382
      7 C         141.1377  144.7316  163.7585 C.ar    1  UNL1        0.1242
      8 CL        140.8996  145.7899  162.7224 Cl      1  UNL1       -0.0761
      9 C         141.8516  141.5568  166.8667 C.ar    1  UNL1        0.0360
     10 C         141.3573  141.7553  168.2689 C.ar    1  UNL1        0.0054
     11 C         141.5953  140.6971  169.3049 C.ar    1  UNL1        0.0297
     12 C         142.3276  139.4402  168.9388 C.ar    1  UNL1        0.1401
     13 F         142.5656  138.3820  169.9749 F       1  UNL1       -0.2042
     14 C         142.8220  139.2416  167.5366 C.ar    1  UNL1        0.0297
     15 C         142.5839  140.3000  166.5005 C.ar    1  UNL1        0.0054
     16 O         138.5957  144.6839  164.2937 O.3     1  UNL1       -0.4596
     17 C         137.7128  143.9891  163.2999 C.3     1  UNL1        0.2086
     18 C         138.1319  142.6724  162.7160 C.3     1  UNL1        0.0647
     19 C         137.3359  141.4351  163.0079 C.3     1  UNL1        0.0759
     20 N         137.9869  140.2677  163.6885 N.3     1  UNL1       -0.2726
     21 C         138.2938  140.3304  165.1555 C.3     1  UNL1        0.0721
     22 C         138.9448  139.1631  165.8362 C.3     1  UNL1        0.0174
     23 C         139.2890  137.9329  165.0499 C.3     1  UNL1        0.0029
     24 C         138.9821  137.8701  163.5830 C.3     1  UNL1        0.0174
     25 C         138.3311  139.0375  162.9023 C.3     1  UNL1        0.0721
@<TRIPOS>BOND
     1     1     2    1
     2     2     3   ar
     3     3     4   ar
     4     4     9    1
     5     9    10   ar
     6    10    11   ar
     7    11    12   ar
     8    12    13    1
     9    12    14   ar
    10    14    15   ar
    11     4     5   ar
    12     5     6   ar
    13     6    16    1
    14    16    17    1
    15    17    18    1
    16    18    19    1
    17    19    20    1
    18    20    21    1
    19    21    22    1
    20    22    23    1
    21    23    24    1
    22    24    25    1
    23     6     7   ar
    24     7     8    1
    25     7     2   ar
    26    15     9   ar
    27    25    20    1
@<TRIPOS>MOLECULE
*****
 25 27 0 0 0
SMALL
GASTEIGER

@<TRIPOS>ATOM
      1 C         139.1185  144.9315  164.6970 C.3     1  UNL1        0.0532
      2 C         139.2113  143.4794  165.0610 C.ar    1  UNL1        0.0761
      3 N         140.0731  143.0479  166.2105 N.ar    1  UNL1       -0.2298
      4 C         140.1659  141.5958  166.5746 C.ar    1  UNL1        0.1650
      5 N         139.3970  140.5750  165.7892 N.ar    1  UNL1       -0.1918
      6 C         138.5352  141.0064  164.6398 C.ar    1  UNL1        0.2382
      7 C         138.4424  142.4586  164.2757 C.ar    1  UNL1        0.1242
      8 CL        137.5806  142.8900  163.1262 Cl      1  UNL1       -0.0761
      9 C         141.0277  141.1644  167.7240 C.ar    1  UNL1        0.0360
     10 C         140.6510  139.9584  168.5326 C.ar    1  UNL1        0.0054
     11 C         141.5127  139.5270  169.6820 C.ar    1  UNL1        0.0297
     12 C         142.7513  140.3015  170.0230 C.ar    1  UNL1        0.1401
     13 F         143.6130  139.8701  171.1724 F       1  UNL1       -0.2042
     14 C         143.1280  141.5075  169.2144 C.ar    1  UNL1        0.0297
     15 C         142.2662  141.9389  168.0649 C.ar    1  UNL1        0.0054
     16 O         137.7663  139.9856  163.8544 O.3     1  UNL1       -0.4596
     17 C         138.4906  139.0364  162.9466 C.3     1  UNL1        0.2086
     18 C         139.1557  137.8170  163.5130 C.3     1  UNL1        0.0647
     19 C         140.5243  137.4224  163.0427 C.3     1  UNL1        0.0759
     20 N         141.7398  138.0236  163.6838 N.3     1  UNL1       -0.2726
     21 C         142.8284  138.6040  162.8304 C.3     1  UNL1        0.0721
     22 C         144.0439  139.2052  163.4714 C.3     1  UNL1        0.0174
     23 C         144.1709  139.2260  164.9659 C.3     1  UNL1        0.0029
     24 C         143.0825  138.6457  165.8193 C.3     1  UNL1        0.0174
     25 C         141.8668  138.0444  165.1783 C.3     1  UNL1        0.0721
@<TRIPOS>BOND
     1     1     2    1
     2     2     3   ar
     3     3     4   ar
     4     4     9    1
     5     9    10   ar
     6    10    11   ar
     7    11    12   ar
     8    12    13    1
     9    12    14   ar
    10    14    15   ar
    11     4     5   ar
    12     5     6   ar
    13     6    16    1
    14    16    17    1
    15    17    18    1
    16    18    19    1
    17    19    20    1
    18    20    21    1
    19    21    22    1
    20    22    23    1
    21    23    24    1
    22    24    25    1
    23     6     7   ar
    24     7     8    1
    25     7     2   ar
    26    15     9   ar
    27    25    20    1
@<TRIPOS>MOLECULE
*****
 25 27 0 0 0
SMALL
GASTEIGER

@<TRIPOS>ATOM
      1 C         144.6244  143.3583  165.3578 C.3     1  UNL1        0.0532
      2 C         143.5306  142.7151  164.5578 C.ar    1  UNL1        0.0761
      3 N         142.4906  141.8804  165.2446 N.ar    1  UNL1       -0.2298
      4 C         141.3968  141.2372  164.4446 C.ar    1  UNL1        0.1650
      5 N         141.3430  141.4287  162.9579 N.ar    1  UNL1       -0.1918
      6 C         142.3830  142.2634  162.2711 C.ar    1  UNL1        0.2382
      7 C         143.4768  142.9066  163.0711 C.ar    1  UNL1        0.1242
      8 CL        144.5169  143.7413  162.3842 Cl      1  UNL1       -0.0761
      9 C         140.3568  140.4025  165.1314 C.ar    1  UNL1        0.0360
     10 C         139.5739  139.3883  164.3514 C.ar    1  UNL1        0.0054
     11 C         138.5339  138.5536  165.0381 C.ar    1  UNL1        0.0297
     12 C         138.2767  138.7332  166.5050 C.ar    1  UNL1        0.1401
     13 F         137.2367  137.8985  167.1918 F       1  UNL1       -0.2042
     14 C         139.0595  139.7474  167.2851 C.ar    1  UNL1        0.0297
     15 C         140.0996  140.5821  166.5982 C.ar    1  UNL1        0.0054
     16 O         142.3293  142.4549  160.7843 O.3     1  UNL1       -0.4596
     17 C         141.5129  143.5698  160.2007 C.3     1  UNL1        0.2086
     18 C         141.2885  144.8267  160.9881 C.3     1  UNL1        0.0647
     19 C         139.9032  145.2003  161.4255 C.3     1  UNL1        0.0759
     20 N         139.2077  144.3949  162.4826 N.3     1  UNL1       -0.2726
     21 C         139.4304  144.7086  163.9325 C.3     1  UNL1        0.0721
     22 C         138.7348  143.9031  164.9895 C.3     1  UNL1        0.0174
     23 C         137.8166  142.7839  164.5968 C.3     1  UNL1        0.0029
     24 C         137.5939  142.4702  163.1470 C.3     1  UNL1        0.0174
     25 C         138.2894  143.2757  162.0898 C.3     1  UNL1        0.0721
@<TRIPOS>BOND
     1     1     2    1
     2     2     3   ar
     3     3     4   ar
     4     4     9    1
     5     9    10   ar
     6    10    11   ar
     7    11    12   ar
     8    12    13    1
     9    12    14   ar
    10    14    15   ar
    11     4     5   ar
    12     5     6   ar
    13     6    16    1
    14    16    17    1
    15    17    18    1
    16    18    19    1
    17    19    20    1
    18    20    21    1
    19    21    22    1
    20    22    23    1
    21    23    24    1
    22    24    25    1
    23     6     7   ar
    24     7     8    1
    25     7     2   ar
    26    15     9   ar
    27    25    20    1
@<TRIPOS>MOLECULE
*****
 25 27 0 0 0
SMALL
GASTEIGER

@<TRIPOS>ATOM
      1 C         138.9250  137.6269  162.9474 C.3     1  UNL1        0.0532
      2 C         138.9163  138.8580  163.8044 C.ar    1  UNL1        0.0761
      3 N         139.6410  138.8627  165.1177 N.ar    1  UNL1       -0.2298
      4 C         139.6323  140.0937  165.9747 C.ar    1  UNL1        0.1650
      5 N         138.8988  141.3200  165.5185 N.ar    1  UNL1       -0.1918
      6 C         138.1740  141.3153  164.2053 C.ar    1  UNL1        0.2382
      7 C         138.1828  140.0842  163.3482 C.ar    1  UNL1        0.1242
      8 CL        137.4580  140.0795  162.0349 Cl      1  UNL1       -0.0761
      9 C         140.3571  140.0984  167.2880 C.ar    1  UNL1        0.0360
     10 C         141.8559  140.0461  167.3177 C.ar    1  UNL1        0.0054
     11 C         142.5807  140.0508  168.6309 C.ar    1  UNL1        0.0297
     12 C         141.8067  140.1078  169.9146 C.ar    1  UNL1        0.1401
     13 F         142.5315  140.1125  171.2278 F       1  UNL1       -0.2042
     14 C         140.3079  140.1602  169.8849 C.ar    1  UNL1        0.0297
     15 C         139.5831  140.1555  168.5716 C.ar    1  UNL1        0.0054
     16 O         137.4405  142.5416  163.7490 O.3     1  UNL1       -0.4596
     17 C         138.0402  143.4261  162.6964 C.3     1  UNL1        0.2086
     18 C         138.8413  144.6298  163.0955 C.3     1  UNL1        0.0647
     19 C         139.5981  144.6313  164.3906 C.3     1  UNL1        0.0759
     20 N         141.0789  144.3919  164.3941 N.3     1  UNL1       -0.2726
     21 C         141.9935  145.3393  163.6758 C.3     1  UNL1        0.0721
     22 C         143.4743  145.1000  163.6794 C.3     1  UNL1        0.0174
     23 C         144.0404  143.9132  164.4013 C.3     1  UNL1        0.0029
     24 C         143.1258  142.9658  165.1196 C.3     1  UNL1        0.0174
     25 C         141.6450  143.2052  165.1160 C.3     1  UNL1        0.0721
@<TRIPOS>BOND
     1     1     2    1
     2     2     3   ar
     3     3     4   ar
     4     4     9    1
     5     9    10   ar
     6    10    11   ar
     7    11    12   ar
     8    12    13    1
     9    12    14   ar
    10    14    15   ar
    11     4     5   ar
    12     5     6   ar
    13     6    16    1
    14    16    17    1
    15    17    18    1
    16    18    19    1
    17    19    20    1
    18    20    21    1
    19    21    22    1
    20    22    23    1
    21    23    24    1
    22    24    25    1
    23     6     7   ar
    24     7     8    1
    25     7     2   ar
    26    15     9   ar
    27    25    20    1
@<TRIPOS>MOLECULE
*****
 25 27 0 0 0
SMALL
GASTEIGER

@<TRIPOS>ATOM
      1 C         140.4511  144.8182  163.8187 C.3     1  UNL1        0.0532
      2 C         140.7086  143.3765  163.4944 C.ar    1  UNL1        0.0761
      3 N         140.0012  142.2977  164.2597 N.ar    1  UNL1       -0.2298
      4 C         140.2587  140.8560  163.9354 C.ar    1  UNL1        0.1650
      5 N         141.2235  140.4931  162.8458 N.ar    1  UNL1       -0.1918
      6 C         141.9309  141.5719  162.0804 C.ar    1  UNL1        0.2382
      7 C         141.6734  143.0136  162.4047 C.ar    1  UNL1        0.1242
      8 CL        142.3808  144.0924  161.6393 Cl      1  UNL1       -0.0761
      9 C         139.5513  139.7772  164.7008 C.ar    1  UNL1        0.0360
     10 C         138.6845  140.1337  165.8720 C.ar    1  UNL1        0.0054
     11 C         137.9771  139.0549  166.6374 C.ar    1  UNL1        0.0297
     12 C         138.1365  137.6196  166.2317 C.ar    1  UNL1        0.1401
     13 F         137.4291  136.5409  166.9971 F       1  UNL1       -0.2042
     14 C         139.0033  137.2631  165.0605 C.ar    1  UNL1        0.0297
     15 C         139.7107  138.3419  164.2951 C.ar    1  UNL1        0.0054
     16 O         142.8957  141.2090  160.9907 O.3     1  UNL1       -0.4596
     17 C         144.2376  140.6354  161.3375 C.3     1  UNL1        0.2086
     18 C         144.9080  141.0197  162.6232 C.3     1  UNL1        0.0647
     19 C         144.9477  140.0504  163.7672 C.3     1  UNL1        0.0759
     20 N         144.0230  140.2299  164.9345 N.3     1  UNL1       -0.2726
     21 C         143.4705  139.0299  165.6452 C.3     1  UNL1        0.0721
     22 C         142.5458  139.2093  166.8124 C.3     1  UNL1        0.0174
     23 C         142.1734  140.5887  167.2692 C.3     1  UNL1        0.0029
     24 C         142.7258  141.7886  166.5586 C.3     1  UNL1        0.0174
     25 C         143.6506  141.6092  165.3913 C.3     1  UNL1        0.0721
@<TRIPOS>BOND
     1     1     2    1
     2     2     3   ar
     3     3     4   ar
     4     4     9    1
     5     9    10   ar
     6    10    11   ar
     7    11    12   ar
     8    12    13    1
     9    12    14   ar
    10    14    15   ar
    11     4     5   ar
    12     5     6   ar
    13     6    16    1
    14    16    17    1
    15    17    18    1
    16    18    19    1
    17    19    20    1
    18    20    21    1
    19    21    22    1
    20    22    23    1
    21    23    24    1
    22    24    25    1
    23     6     7   ar
    24     7     8    1
    25     7     2   ar
    26    15     9   ar
    27    25    20    1
@<TRIPOS>MOLECULE
*****
 25 27 0 0 0
SMALL
GASTEIGER

@<TRIPOS>ATOM
      1 C         138.0572  144.4298  163.5919 C.3     1  UNL1        0.0532
      2 C         139.4242  144.0086  164.0436 C.ar    1  UNL1        0.0761
      3 N         139.5749  143.0766  165.2092 N.ar    1  UNL1       -0.2298
      4 C         140.9418  142.6553  165.6608 C.ar    1  UNL1        0.1650
      5 N         142.1581  143.1661  164.9469 N.ar    1  UNL1       -0.1918
      6 C         142.0074  144.0981  163.7813 C.ar    1  UNL1        0.2382
      7 C         140.6404  144.5193  163.3296 C.ar    1  UNL1        0.1242
      8 CL        140.4898  145.4514  162.1640 Cl      1  UNL1       -0.0761
      9 C         141.0925  141.7233  166.8265 C.ar    1  UNL1        0.0360
     10 C         142.4219  141.5819  167.5067 C.ar    1  UNL1        0.0054
     11 C         142.5726  140.6499  168.6723 C.ar    1  UNL1        0.0297
     12 C         141.3938  139.8593  169.1577 C.ar    1  UNL1        0.1401
     13 F         141.5445  138.9273  170.3233 F       1  UNL1       -0.2042
     14 C         140.0645  140.0007  168.4775 C.ar    1  UNL1        0.0297
     15 C         139.9138  140.9327  167.3118 C.ar    1  UNL1        0.0054
     16 O         143.2237  144.6090  163.0673 O.3     1  UNL1       -0.4596
     17 C         144.0074  143.6949  162.1727 C.3     1  UNL1        0.2086
     18 C         144.9350  142.6772  162.7675 C.3     1  UNL1        0.0647
     19 C         144.7550  141.2223  162.4503 C.3     1  UNL1        0.0759
     20 N         143.9397  140.3517  163.3599 N.3     1  UNL1       -0.2726
     21 C         144.5920  139.6620  164.5214 C.3     1  UNL1        0.0721
     22 C         143.7768  138.7914  165.4310 C.3     1  UNL1        0.0174
     23 C         142.3092  138.6105  165.1792 C.3     1  UNL1        0.0029
     24 C         141.6568  139.3001  164.0178 C.3     1  UNL1        0.0174
     25 C         142.4721  140.1707  163.1081 C.3     1  UNL1        0.0721
@<TRIPOS>BOND
     1     1     2    1
     2     2     3   ar
     3     3     4   ar
     4     4     9    1
     5     9    10   ar
     6    10    11   ar
     7    11    12   ar
     8    12    13    1
     9    12    14   ar
    10    14    15   ar
    11     4     5   ar
    12     5     6   ar
    13     6    16    1
    14    16    17    1
    15    17    18    1
    16    18    19    1
    17    19    20    1
    18    20    21    1
    19    21    22    1
    20    22    23    1
    21    23    24    1
    22    24    25    1
    23     6     7   ar
    24     7     8    1
    25     7     2   ar
    26    15     9   ar
    27    25    20    1
@<TRIPOS>MOLECULE
*****
 25 27 0 0 0
SMALL
GASTEIGER

@<TRIPOS>ATOM
      1 C         137.8235  143.8861  163.6342 C.3     1  UNL1        0.0532
      2 C         138.4804  142.7831  164.4100 C.ar    1  UNL1        0.0761
      3 N         139.3601  143.1101  165.5801 N.ar    1  UNL1       -0.2298
      4 C         140.0170  142.0071  166.3559 C.ar    1  UNL1        0.1650
      5 N         139.7942  140.5772  165.9616 N.ar    1  UNL1       -0.1918
      6 C         138.9146  140.2502  164.7915 C.ar    1  UNL1        0.2382
      7 C         138.2576  141.3532  164.0157 C.ar    1  UNL1        0.1242
      8 CL        137.3779  141.0261  162.8456 Cl      1  UNL1       -0.0761
      9 C         140.8967  142.3342  167.5261 C.ar    1  UNL1        0.0360
     10 C         142.3345  141.9066  167.5261 C.ar    1  UNL1        0.0054
     11 C         143.2142  142.2336  168.6962 C.ar    1  UNL1        0.0297
     12 C         142.6562  142.9882  169.8663 C.ar    1  UNL1        0.1401
     13 F         143.5359  143.3153  171.0364 F       1  UNL1       -0.2042
     14 C         141.2184  143.4159  169.8663 C.ar    1  UNL1        0.0297
     15 C         140.3387  143.0888  168.6961 C.ar    1  UNL1        0.0054
     16 O         138.6918  138.8201  164.3972 O.3     1  UNL1       -0.4596
     17 C         139.4647  137.7266  165.0730 C.3     1  UNL1        0.2086
     18 C         140.6031  137.0608  164.3583 C.3     1  UNL1        0.0647
     19 C         141.2442  137.7320  163.1800 C.3     1  UNL1        0.0759
     20 N         142.4724  138.5715  163.3718 N.3     1  UNL1       -0.2726
     21 C         142.9476  138.9001  164.7562 C.3     1  UNL1        0.0721
     22 C         144.1757  139.7396  164.9480 C.3     1  UNL1        0.0174
     23 C         144.9287  140.2506  163.7556 C.3     1  UNL1        0.0029
     24 C         144.4535  139.9221  162.3713 C.3     1  UNL1        0.0174
     25 C         143.2253  139.0825  162.1794 C.3     1  UNL1        0.0721
@<TRIPOS>BOND
     1     1     2    1
     2     2     3   ar
     3     3     4   ar
     4     4     9    1
     5     9    10   ar
     6    10    11   ar
     7    11    12   ar
     8    12    13    1
     9    12    14   ar
    10    14    15   ar
    11     4     5   ar
    12     5     6   ar
    13     6    16    1
    14    16    17    1
    15    17    18    1
    16    18    19    1
    17    19    20    1
    18    20    21    1
    19    21    22    1
    20    22    23    1
    21    23    24    1
    22    24    25    1
    23     6     7   ar
    24     7     8    1
    25     7     2   ar
    26    15     9   ar
    27    25    20    1
