@<TRIPOS>MOLECULE
*****
 28 30 0 0 0
SMALL
GASTEIGER

@<TRIPOS>ATOM
      1 C         140.2421  143.0962  165.8083 C.2     1  UNL1       -0.0151
      2 C         141.6084  143.4814  165.3240 C.2     1  UNL1        0.0121
      3 C         141.7587  144.2986  164.0750 C.2     1  UNL1        0.0682
      4 C         140.5426  144.7305  163.3106 C.2     1  UNL1        0.0512
      5 C         140.3795  145.5354  162.0554 C.2     1  UNL1        0.1246
      6 N         138.9124  145.6476  161.7640 N.2     1  UNL1       -0.1466
      7 N         138.1687  144.9121  162.8392 N.2     1  UNL1       -0.1519
      8 C         139.1762  144.3453  163.7950 C.2     1  UNL1        0.0876
      9 C         139.0260  143.5281  165.0439 C.3     1  UNL1        0.0740
     10 C         139.7410  140.8237  166.9636 C.ar    1  UNL1       -0.0193
     11 C         139.5907  140.0065  168.2126 C.ar    1  UNL1        0.0347
     12 C         139.7913  140.6448  169.5550 C.ar    1  UNL1        0.1607
     13 O         139.6410  139.8278  170.8039 O.3     1  UNL1       -0.5034
     14 C         140.1421  142.1002  169.6486 C.ar    1  UNL1        0.1735
     15 F         140.3427  142.7386  170.9912 F       1  UNL1       -0.2010
     16 C         140.2924  142.9173  168.3997 C.ar    1  UNL1        0.0322
     17 C         140.0918  142.2790  167.0572 C.ar    1  UNL1       -0.0051
     18 H         139.4219  138.9186  170.7455 H       1  UNL1        0.2923
     19 C         138.1953  139.6394  165.2436 C.3     1  UNL1        0.0050
     20 C         139.5404  140.1854  165.6211 C.3     1  UNL1        0.0265
     21 N         143.1251  144.6838  163.5907 N.pl3   1  UNL1       -0.2051
     22 H         143.4393  145.6115  163.6903 H       1  UNL1        0.1748
     23 S         144.0129  143.6555  162.9546 S.O2    1  UNL1        0.1131
     24 O         143.4747  144.0262  161.6045 O.2     1  UNL1       -0.1379
     25 O         144.5510  143.2848  164.3048 O.2     1  UNL1       -0.1379
     26 N         144.9006  142.6273  162.3185 N.3     1  UNL1       -0.1399
     27 C         144.9297  142.4818  160.8258 C.3     1  UNL1        0.1163
     28 C         145.7591  141.7445  163.1750 C.3     1  UNL1        0.1163
@<TRIPOS>BOND
     1    19    20    1
     2    20    10    1
     3    10    11   ar
     4    11    12   ar
     5    12    13    1
     6    12    14   ar
     7    14    15    1
     8    14    16   ar
     9    16    17   ar
    10    17     1    1
    11     1     2    2
    12     2     3    1
    13     3    21    1
    14    21    23    1
    15    23    24    2
    16    23    25    2
    17    23    26    1
    18    26    27    1
    19    26    28    1
    20     3     4    2
    21     4     5    1
    22     5     6    2
    23     6     7    1
    24     7     8    2
    25     8     9    1
    26    17    10   ar
    27     9     1    1
    28     8     4    1
    29    13    18    1
    30    21    22    1
@<TRIPOS>MOLECULE
*****
 28 30 0 0 0
SMALL
GASTEIGER

@<TRIPOS>ATOM
      1 C         139.8240  140.3053  166.0723 C.2     1  UNL1       -0.0151
      2 C         139.3471  141.6105  165.5078 C.2     1  UNL1        0.0121
      3 C         138.6347  141.6413  164.1880 C.2     1  UNL1        0.0682
      4 C         138.3993  140.3668  163.4329 C.2     1  UNL1        0.0512
      5 C         137.7315  140.0873  162.1192 C.2     1  UNL1        0.1246
      6 N         137.7957  138.6093  161.8718 N.2     1  UNL1       -0.1466
      7 N         138.5033  137.9753  163.0327 N.2     1  UNL1       -0.1519
      8 C         138.8763  139.0616  163.9975 C.2     1  UNL1        0.0876
      9 C         139.5887  139.0308  165.3172 C.3     1  UNL1        0.0740
     10 C         142.0166  140.5098  167.4510 C.ar    1  UNL1       -0.0193
     11 C         142.7290  140.4789  168.7707 C.ar    1  UNL1        0.0347
     12 C         141.9611  140.2127  170.0314 C.ar    1  UNL1        0.1607
     13 O         142.6734  140.1818  171.3511 O.3     1  UNL1       -0.5034
     14 C         140.4809  139.9773  169.9724 C.ar    1  UNL1        0.1735
     15 F         139.7129  139.7110  171.2332 F       1  UNL1       -0.2010
     16 C         139.7685  140.0082  168.6527 C.ar    1  UNL1        0.0322
     17 C         140.5365  140.2744  167.3920 C.ar    1  UNL1       -0.0051
     18 H         143.5981  140.3288  171.3880 H       1  UNL1        0.2923
     19 C         143.1572  142.1815  165.8216 C.3     1  UNL1        0.0050
     20 C         142.7845  140.7760  166.1903 C.3     1  UNL1        0.0265
     21 N         138.1577  142.9467  163.6236 N.pl3   1  UNL1       -0.2051
     22 H         137.1965  143.0952  163.4710 H       1  UNL1        0.1748
     23 S         139.1453  144.0258  163.2915 S.O2    1  UNL1        0.1131
     24 O         139.6289  143.2227  162.1206 O.2     1  UNL1       -0.1379
     25 O         138.6616  144.8289  164.4625 O.2     1  UNL1       -0.1379
     26 N         140.1328  145.1048  162.9594 N.3     1  UNL1       -0.1399
     27 C         139.7954  146.1380  161.9257 C.3     1  UNL1        0.1163
     28 C         141.4578  145.1507  163.6611 C.3     1  UNL1        0.1163
@<TRIPOS>BOND
     1    19    20    1
     2    20    10    1
     3    10    11   ar
     4    11    12   ar
     5    12    13    1
     6    12    14   ar
     7    14    15    1
     8    14    16   ar
     9    16    17   ar
    10    17     1    1
    11     1     2    2
    12     2     3    1
    13     3    21    1
    14    21    23    1
    15    23    24    2
    16    23    25    2
    17    23    26    1
    18    26    27    1
    19    26    28    1
    20     3     4    2
    21     4     5    1
    22     5     6    2
    23     6     7    1
    24     7     8    2
    25     8     9    1
    26    17    10   ar
    27     9     1    1
    28     8     4    1
    29    13    18    1
    30    21    22    1
@<TRIPOS>MOLECULE
*****
 28 30 0 0 0
SMALL
GASTEIGER

@<TRIPOS>ATOM
      1 C         142.5455  140.1317  166.0062 C.2     1  UNL1       -0.0151
      2 C         142.1788  139.1223  164.9592 C.2     1  UNL1        0.0121
      3 C         142.8047  139.1924  163.5978 C.2     1  UNL1        0.0682
      4 C         143.7974  140.2721  163.2836 C.2     1  UNL1        0.0512
      5 C         144.5728  140.5916  162.0399 C.2     1  UNL1        0.1246
      6 N         145.4188  141.7985  162.3184 N.2     1  UNL1       -0.1466
      7 N         145.1663  142.2250  163.7342 N.2     1  UNL1       -0.1519
      8 C         144.1642  141.2816  164.3307 C.2     1  UNL1        0.0876
      9 C         143.5382  141.2114  165.6920 C.3     1  UNL1        0.0740
     10 C         140.4425  140.2690  167.5256 C.ar    1  UNL1       -0.0193
     11 C         139.8166  140.1988  168.8870 C.ar    1  UNL1        0.0347
     12 C         140.6679  139.9212  170.0904 C.ar    1  UNL1        0.1607
     13 O         140.0421  139.8511  171.4518 O.3     1  UNL1       -0.5034
     14 C         142.1451  139.7138  169.9324 C.ar    1  UNL1        0.1735
     15 F         142.9964  139.4363  171.1359 F       1  UNL1       -0.2010
     16 C         142.7709  139.7840  168.5711 C.ar    1  UNL1        0.0322
     17 C         141.9196  140.0616  167.3677 C.ar    1  UNL1       -0.0051
     18 H         139.1193  139.9806  171.5505 H       1  UNL1        0.2923
     19 C         138.5269  139.5710  165.9151 C.3     1  UNL1        0.0050
     20 C         139.5912  140.5465  166.3222 C.3     1  UNL1        0.0265
     21 N         142.4379  138.1829  162.5507 N.pl3   1  UNL1       -0.2051
     22 H         143.1091  137.5359  162.2342 H       1  UNL1        0.1748
     23 S         141.0485  138.1590  161.9860 S.O2    1  UNL1        0.1131
     24 O         141.3632  139.3714  161.1608 O.2     1  UNL1       -0.1379
     25 O         140.7338  136.9466  162.8113 O.2     1  UNL1       -0.1379
     26 N         139.6591  138.1353  161.4213 N.3     1  UNL1       -0.1399
     27 C         138.4892  137.8610  162.3190 C.3     1  UNL1        0.1163
     28 C         139.4396  138.3858  159.9587 C.3     1  UNL1        0.1163
@<TRIPOS>BOND
     1    19    20    1
     2    20    10    1
     3    10    11   ar
     4    11    12   ar
     5    12    13    1
     6    12    14   ar
     7    14    15    1
     8    14    16   ar
     9    16    17   ar
    10    17     1    1
    11     1     2    2
    12     2     3    1
    13     3    21    1
    14    21    23    1
    15    23    24    2
    16    23    25    2
    17    23    26    1
    18    26    27    1
    19    26    28    1
    20     3     4    2
    21     4     5    1
    22     5     6    2
    23     6     7    1
    24     7     8    2
    25     8     9    1
    26    17    10   ar
    27     9     1    1
    28     8     4    1
    29    13    18    1
    30    21    22    1
@<TRIPOS>MOLECULE
*****
 28 30 0 0 0
SMALL
GASTEIGER

@<TRIPOS>ATOM
      1 C         140.9477  142.6728  166.0672 C.2     1  UNL1       -0.0151
      2 C         139.9743  143.3272  165.1323 C.2     1  UNL1        0.0121
      3 C         140.4722  144.0448  163.9128 C.2     1  UNL1        0.0682
      4 C         141.9436  144.1080  163.6283 C.2     1  UNL1        0.0512
      5 C         142.7242  144.7389  162.5136 C.2     1  UNL1        0.1246
      6 N         144.1800  144.4744  162.7596 N.2     1  UNL1       -0.1466
      7 N         144.2992  143.6800  164.0264 N.2     1  UNL1       -0.1519
      8 C         142.9170  143.4535  164.5633 C.2     1  UNL1        0.0876
      9 C         142.4191  142.7359  165.7827 C.3     1  UNL1        0.0740
     10 C         139.8049  140.6076  167.1530 C.ar    1  UNL1       -0.0193
     11 C         139.3069  139.8900  168.3725 C.ar    1  UNL1        0.0347
     12 C         139.4539  140.5201  169.7258 C.ar    1  UNL1        0.1607
     13 O         138.9560  139.8026  170.9453 O.3     1  UNL1       -0.5034
     14 C         140.0988  141.8678  169.8595 C.ar    1  UNL1        0.1735
     15 F         140.2458  142.4980  171.2128 F       1  UNL1       -0.2010
     16 C         140.5967  142.5853  168.6400 C.ar    1  UNL1        0.0322
     17 C         140.4497  141.9552  167.2868 C.ar    1  UNL1       -0.0051
     18 H         138.5532  138.9607  170.8617 H       1  UNL1        0.2923
     19 C         138.2972  139.6061  165.2890 C.3     1  UNL1        0.0050
     20 C         139.6579  139.9774  165.7998 C.3     1  UNL1        0.0265
     21 N         139.4987  144.6993  162.9779 N.pl3   1  UNL1       -0.2051
     22 H         138.8946  145.4024  163.3093 H       1  UNL1        0.1748
     23 S         139.4457  144.2824  161.5380 S.O2    1  UNL1        0.1131
     24 O         139.2048  142.8627  161.9580 O.2     1  UNL1       -0.1379
     25 O         139.6865  145.7020  161.1180 O.2     1  UNL1       -0.1379
     26 N         139.3926  143.8654  160.0981 N.3     1  UNL1       -0.1399
     27 C         138.6314  142.6354  159.7011 C.3     1  UNL1        0.1163
     28 C         140.1008  144.6784  159.0552 C.3     1  UNL1        0.1163
@<TRIPOS>BOND
     1    19    20    1
     2    20    10    1
     3    10    11   ar
     4    11    12   ar
     5    12    13    1
     6    12    14   ar
     7    14    15    1
     8    14    16   ar
     9    16    17   ar
    10    17     1    1
    11     1     2    2
    12     2     3    1
    13     3    21    1
    14    21    23    1
    15    23    24    2
    16    23    25    2
    17    23    26    1
    18    26    27    1
    19    26    28    1
    20     3     4    2
    21     4     5    1
    22     5     6    2
    23     6     7    1
    24     7     8    2
    25     8     9    1
    26    17    10   ar
    27     9     1    1
    28     8     4    1
    29    13    18    1
    30    21    22    1
@<TRIPOS>MOLECULE
*****
 28 30 0 0 0
SMALL
GASTEIGER

@<TRIPOS>ATOM
      1 C         139.9860  141.3247  166.3263 C.2     1  UNL1       -0.0151
      2 C         139.0425  140.5627  165.4437 C.2     1  UNL1        0.0121
      3 C         138.3021  141.2715  164.3485 C.2     1  UNL1        0.0682
      4 C         138.5051  142.7425  164.1360 C.2     1  UNL1        0.0512
      5 C         137.9185  143.7038  163.1453 C.2     1  UNL1        0.1246
      6 N         138.4994  145.0601  163.4157 N.2     1  UNL1       -0.1466
      7 N         139.4451  144.9369  164.5735 N.2     1  UNL1       -0.1519
      8 C         139.4486  143.5045  165.0187 C.2     1  UNL1        0.0876
      9 C         140.1891  142.7956  166.1138 C.3     1  UNL1        0.0740
     10 C         142.0560  139.9815  167.1392 C.ar    1  UNL1       -0.0193
     11 C         142.7964  139.2726  168.2344 C.ar    1  UNL1        0.0347
     12 C         142.2073  139.1983  169.6118 C.ar    1  UNL1        0.1607
     13 O         142.9477  138.4895  170.7070 O.3     1  UNL1       -0.5034
     14 C         140.8777  139.8328  169.8940 C.ar    1  UNL1        0.1735
     15 F         140.2885  139.7585  171.2716 F       1  UNL1       -0.2010
     16 C         140.1373  140.5416  168.7989 C.ar    1  UNL1        0.0322
     17 C         140.7265  140.6159  167.4215 C.ar    1  UNL1       -0.0051
     18 H         143.7782  138.0932  170.5306 H       1  UNL1        0.2923
     19 C         142.7784  138.8114  164.9348 C.3     1  UNL1        0.0050
     20 C         142.6451  140.0558  165.7618 C.3     1  UNL1        0.0265
     21 N         137.3586  140.5094  163.4658 N.pl3   1  UNL1       -0.2051
     22 H         136.4179  140.3957  163.7330 H       1  UNL1        0.1748
     23 S         137.8484  139.9205  162.1762 S.O2    1  UNL1        0.1131
     24 O         138.4044  138.7452  162.9242 O.2     1  UNL1       -0.1379
     25 O         137.2924  141.0958  161.4282 O.2     1  UNL1       -0.1379
     26 N         138.3382  139.3314  160.8866 N.3     1  UNL1       -0.1399
     27 C         139.1595  138.0763  160.8995 C.3     1  UNL1        0.1163
     28 C         138.0068  139.9976  159.5841 C.3     1  UNL1        0.1163
@<TRIPOS>BOND
     1    19    20    1
     2    20    10    1
     3    10    11   ar
     4    11    12   ar
     5    12    13    1
     6    12    14   ar
     7    14    15    1
     8    14    16   ar
     9    16    17   ar
    10    17     1    1
    11     1     2    2
    12     2     3    1
    13     3    21    1
    14    21    23    1
    15    23    24    2
    16    23    25    2
    17    23    26    1
    18    26    27    1
    19    26    28    1
    20     3     4    2
    21     4     5    1
    22     5     6    2
    23     6     7    1
    24     7     8    2
    25     8     9    1
    26    17    10   ar
    27     9     1    1
    28     8     4    1
    29    13    18    1
    30    21    22    1
@<TRIPOS>MOLECULE
*****
 28 30 0 0 0
SMALL
GASTEIGER

@<TRIPOS>ATOM
      1 C         141.3144  140.1681  164.4971 C.2     1  UNL1       -0.0151
      2 C         140.9771  141.2046  163.4668 C.2     1  UNL1        0.0121
      3 C         142.0742  141.9336  162.7490 C.2     1  UNL1        0.0682
      4 C         143.5086  141.6259  163.0617 C.2     1  UNL1        0.0512
      5 C         144.7943  142.1776  162.5209 C.2     1  UNL1        0.1246
      6 N         145.9263  141.4819  163.2170 N.2     1  UNL1       -0.1466
      7 N         145.3402  140.5003  164.1880 N.2     1  UNL1       -0.1519
      8 C         143.8459  140.5893  164.0921 C.2     1  UNL1        0.0876
      9 C         142.7488  139.8604  164.8097 C.3     1  UNL1        0.0740
     10 C         139.6292  138.1945  164.6192 C.ar    1  UNL1       -0.0193
     11 C         138.5321  137.4655  165.3370 C.ar    1  UNL1        0.0347
     12 C         138.0233  137.9813  166.6504 C.ar    1  UNL1        0.1607
     13 O         136.9263  137.2524  167.3681 O.3     1  UNL1       -0.5034
     14 C         138.6115  139.2260  167.2460 C.ar    1  UNL1        0.1735
     15 F         138.1026  139.7418  168.5595 F       1  UNL1       -0.2010
     16 C         139.7085  139.9549  166.5282 C.ar    1  UNL1        0.0322
     17 C         140.2173  139.4391  165.2148 C.ar    1  UNL1       -0.0051
     18 H         136.5588  136.4749  166.9961 H       1  UNL1        0.2923
     19 C         139.4179  138.0218  162.0354 C.3     1  UNL1        0.0050
     20 C         140.1380  137.6787  163.3058 C.3     1  UNL1        0.0265
     21 N         141.7367  142.9702  161.7186 N.pl3   1  UNL1       -0.2051
     22 H         142.2359  143.0021  160.8706 H       1  UNL1        0.1748
     23 S         140.6389  143.9582  161.9803 S.O2    1  UNL1        0.1131
     24 O         141.4910  144.6308  163.0154 O.2     1  UNL1       -0.1379
     25 O         139.7867  143.2856  160.9452 O.2     1  UNL1       -0.1379
     26 N         139.5410  144.9462  162.2420 N.3     1  UNL1       -0.1399
     27 C         139.6613  146.3528  161.7351 C.3     1  UNL1        0.1163
     28 C         138.3228  144.5276  163.0107 C.3     1  UNL1        0.1163
@<TRIPOS>BOND
     1    19    20    1
     2    20    10    1
     3    10    11   ar
     4    11    12   ar
     5    12    13    1
     6    12    14   ar
     7    14    15    1
     8    14    16   ar
     9    16    17   ar
    10    17     1    1
    11     1     2    2
    12     2     3    1
    13     3    21    1
    14    21    23    1
    15    23    24    2
    16    23    25    2
    17    23    26    1
    18    26    27    1
    19    26    28    1
    20     3     4    2
    21     4     5    1
    22     5     6    2
    23     6     7    1
    24     7     8    2
    25     8     9    1
    26    17    10   ar
    27     9     1    1
    28     8     4    1
    29    13    18    1
    30    21    22    1
@<TRIPOS>MOLECULE
*****
 28 30 0 0 0
SMALL
GASTEIGER

@<TRIPOS>ATOM
      1 C         142.1391  140.4406  165.8570 C.2     1  UNL1       -0.0151
      2 C         142.1674  141.7995  165.2225 C.2     1  UNL1        0.0121
      3 C         142.6706  141.9614  163.8186 C.2     1  UNL1        0.0682
      4 C         143.1455  140.7644  163.0494 C.2     1  UNL1        0.0512
      5 C         143.6913  140.6160  161.6602 C.2     1  UNL1        0.1246
      6 N         144.0004  139.1654  161.4362 N.2     1  UNL1       -0.1466
      7 N         143.6456  138.4173  162.6869 N.2     1  UNL1       -0.1519
      8 C         143.1172  139.4056  163.6840 C.2     1  UNL1        0.0876
      9 C         142.6140  139.2437  165.0878 C.3     1  UNL1        0.0740
     10 C         140.1606  140.2491  167.5299 C.ar    1  UNL1       -0.0193
     11 C         139.6574  140.0871  168.9338 C.ar    1  UNL1        0.0347
     12 C         140.6296  139.9548  170.0683 C.ar    1  UNL1        0.1607
     13 O         140.1264  139.7928  171.4721 O.3     1  UNL1       -0.5034
     14 C         142.1049  139.9843  169.7991 C.ar    1  UNL1        0.1735
     15 F         143.0772  139.8520  170.9338 F       1  UNL1       -0.2010
     16 C         142.6081  140.1463  168.3953 C.ar    1  UNL1        0.0322
     17 C         141.6359  140.2787  167.2608 C.ar    1  UNL1       -0.0051
     18 H         139.2048  139.7743  171.6403 H       1  UNL1        0.2923
     19 C         138.3966  139.1904  165.9432 C.3     1  UNL1        0.0050
     20 C         139.1884  140.3815  166.3954 C.3     1  UNL1        0.0265
     21 N         142.6989  143.3204  163.1841 N.pl3   1  UNL1       -0.2051
     22 H         143.5349  143.6642  162.7942 H       1  UNL1        0.1748
     23 S         141.4534  144.1553  163.1438 S.O2    1  UNL1        0.1131
     24 O         140.7999  143.1374  162.2568 O.2     1  UNL1       -0.1379
     25 O         142.1070  145.1732  164.0308 O.2     1  UNL1       -0.1379
     26 N         140.2079  144.9902  163.1035 N.3     1  UNL1       -0.1399
     27 C         139.1461  144.8040  164.1464 C.3     1  UNL1        0.1163
     28 C         140.0243  146.0113  162.0201 C.3     1  UNL1        0.1163
@<TRIPOS>BOND
     1    19    20    1
     2    20    10    1
     3    10    11   ar
     4    11    12   ar
     5    12    13    1
     6    12    14   ar
     7    14    15    1
     8    14    16   ar
     9    16    17   ar
    10    17     1    1
    11     1     2    2
    12     2     3    1
    13     3    21    1
    14    21    23    1
    15    23    24    2
    16    23    25    2
    17    23    26    1
    18    26    27    1
    19    26    28    1
    20     3     4    2
    21     4     5    1
    22     5     6    2
    23     6     7    1
    24     7     8    2
    25     8     9    1
    26    17    10   ar
    27     9     1    1
    28     8     4    1
    29    13    18    1
    30    21    22    1
@<TRIPOS>MOLECULE
*****
 28 30 0 0 0
SMALL
GASTEIGER

@<TRIPOS>ATOM
      1 C         141.0994  142.3803  165.9998 C.2     1  UNL1       -0.0151
      2 C         140.0061  142.2816  164.9776 C.2     1  UNL1        0.0121
      3 C         140.2281  142.8041  163.5891 C.2     1  UNL1        0.0682
      4 C         141.5434  143.4253  163.2230 C.2     1  UNL1        0.0512
      5 C         142.0496  144.0228  161.9437 C.2     1  UNL1        0.1246
      6 N         143.4558  144.4908  162.1753 N.2     1  UNL1       -0.1466
      7 N         143.8186  144.1826  163.5977 N.2     1  UNL1       -0.1519
      8 C         142.6367  143.5241  164.2453 C.2     1  UNL1        0.0876
      9 C         142.4146  143.0016  165.6337 C.3     1  UNL1        0.0740
     10 C         141.1478  140.4156  167.6991 C.ar    1  UNL1       -0.0193
     11 C         140.9259  139.8931  169.0876 C.ar    1  UNL1        0.0347
     12 C         140.4334  140.8130  170.1652 C.ar    1  UNL1        0.1607
     13 O         140.2115  140.2906  171.5537 O.3     1  UNL1       -0.5034
     14 C         140.1630  142.2553  169.8544 C.ar    1  UNL1        0.1735
     15 F         139.6705  143.1753  170.9321 F       1  UNL1       -0.2010
     16 C         140.3850  142.7778  168.4659 C.ar    1  UNL1        0.0322
     17 C         140.8774  141.8578  167.3883 C.ar    1  UNL1       -0.0051
     18 H         140.3804  139.3897  171.7478 H       1  UNL1        0.2923
     19 C         143.0772  139.0657  166.6011 C.3     1  UNL1        0.0050
     20 C         141.6403  139.4957  166.6215 C.3     1  UNL1        0.0265
     21 N         139.1348  142.7053  162.5669 N.pl3   1  UNL1       -0.2051
     22 H         138.7660  143.5224  162.1600 H       1  UNL1        0.1748
     23 S         138.6033  141.3616  162.1647 S.O2    1  UNL1        0.1131
     24 O         137.2345  141.7646  162.6273 O.2     1  UNL1       -0.1379
     25 O         139.9721  140.9585  161.7021 O.2     1  UNL1       -0.1379
     26 N         138.0717  140.0178  161.7625 N.3     1  UNL1       -0.1399
     27 C         137.3627  139.8537  160.4509 C.3     1  UNL1        0.1163
     28 C         138.2492  138.8382  162.6718 C.3     1  UNL1        0.1163
@<TRIPOS>BOND
     1    19    20    1
     2    20    10    1
     3    10    11   ar
     4    11    12   ar
     5    12    13    1
     6    12    14   ar
     7    14    15    1
     8    14    16   ar
     9    16    17   ar
    10    17     1    1
    11     1     2    2
    12     2     3    1
    13     3    21    1
    14    21    23    1
    15    23    24    2
    16    23    25    2
    17    23    26    1
    18    26    27    1
    19    26    28    1
    20     3     4    2
    21     4     5    1
    22     5     6    2
    23     6     7    1
    24     7     8    2
    25     8     9    1
    26    17    10   ar
    27     9     1    1
    28     8     4    1
    29    13    18    1
    30    21    22    1
@<TRIPOS>MOLECULE
*****
 28 30 0 0 0
SMALL
GASTEIGER

@<TRIPOS>ATOM
      1 C         140.0753  142.3137  166.2145 C.2     1  UNL1       -0.0151
      2 C         139.7121  140.9616  165.6763 C.2     1  UNL1        0.0121
      3 C         139.0148  140.8434  164.3534 C.2     1  UNL1        0.0682
      4 C         138.6808  142.0774  163.5689 C.2     1  UNL1        0.0512
      5 C         138.0023  142.2722  162.2454 C.2     1  UNL1        0.1246
      6 N         137.9461  143.7448  161.9657 N.2     1  UNL1       -0.1466
      7 N         138.5899  144.4601  163.1163 N.2     1  UNL1       -0.1519
      8 C         139.0440  143.4296  164.1071 C.2     1  UNL1        0.0876
      9 C         139.7413  143.5477  165.4300 C.3     1  UNL1        0.0740
     10 C         142.2598  142.2555  167.6197 C.ar    1  UNL1       -0.0193
     11 C         142.9571  142.3737  168.9426 C.ar    1  UNL1        0.0347
     12 C         142.1670  142.6683  170.1831 C.ar    1  UNL1        0.1607
     13 O         142.8642  142.7865  171.5059 O.3     1  UNL1       -0.5034
     14 C         140.6797  142.8447  170.1007 C.ar    1  UNL1        0.1735
     15 F         139.8895  143.1393  171.3414 F       1  UNL1       -0.2010
     16 C         139.9825  142.7265  168.7779 C.ar    1  UNL1        0.0322
     17 C         140.7726  142.4319  167.5374 C.ar    1  UNL1       -0.0051
     18 H         143.7933  142.6763  171.5573 H       1  UNL1        0.2923
     19 C         143.8441  143.0492  165.7196 C.3     1  UNL1        0.0050
     20 C         143.0499  141.9609  166.3792 C.3     1  UNL1        0.0265
     21 N         138.6516  139.4911  163.8153 N.pl3   1  UNL1       -0.2051
     22 H         137.9487  138.9593  164.2538 H       1  UNL1        0.1748
     23 S         139.3593  138.9492  162.6089 S.O2    1  UNL1        0.1131
     24 O         138.0373  138.6987  161.9460 O.2     1  UNL1       -0.1379
     25 O         140.6814  139.1998  163.2718 O.2     1  UNL1       -0.1379
     26 N         140.0670  138.4073  161.4024 N.3     1  UNL1       -0.1399
     27 C         141.4707  137.8928  161.5244 C.3     1  UNL1        0.1163
     28 C         139.3709  138.3799  160.0740 C.3     1  UNL1        0.1163
@<TRIPOS>BOND
     1    19    20    1
     2    20    10    1
     3    10    11   ar
     4    11    12   ar
     5    12    13    1
     6    12    14   ar
     7    14    15    1
     8    14    16   ar
     9    16    17   ar
    10    17     1    1
    11     1     2    2
    12     2     3    1
    13     3    21    1
    14    21    23    1
    15    23    24    2
    16    23    25    2
    17    23    26    1
    18    26    27    1
    19    26    28    1
    20     3     4    2
    21     4     5    1
    22     5     6    2
    23     6     7    1
    24     7     8    2
    25     8     9    1
    26    17    10   ar
    27     9     1    1
    28     8     4    1
    29    13    18    1
    30    21    22    1
