@<TRIPOS>MOLECULE
*****
 46 50 0 0 0
SMALL
GASTEIGER

@<TRIPOS>ATOM
      1 C         142.6998  142.8966  159.5495 C.ar    1  UNL1        0.0375
      2 C         142.3664  142.6386  158.1100 C.ar    1  UNL1        0.1031
      3 N         143.4499  142.2552  157.1462 N.ar    1  UNL1       -0.2121
      4 C         144.8670  142.1297  157.6220 C.ar    1  UNL1        0.2200
      5 N         145.2004  142.3877  159.0615 N.ar    1  UNL1       -0.2163
      6 C         144.1167  142.7712  160.0253 C.ar    1  UNL1        0.0836
      7 C         140.9756  144.6333  160.4219 C.ar    1  UNL1        0.1387
      8 C         139.8920  145.0167  161.3856 C.ar    1  UNL1        0.0369
      9 C         139.4490  144.0469  162.4407 C.ar    1  UNL1        0.0031
     10 C         140.0895  142.6936  162.5320 C.ar    1  UNL1       -0.0001
     11 C         141.1731  142.3102  161.5683 C.ar    1  UNL1        0.0031
     12 C         141.6161  143.2801  160.5133 C.ar    1  UNL1        0.0367
     13 C         139.6465  141.7238  163.5871 C.ar    1  UNL1       -0.0039
     14 C         139.1501  140.3638  163.1948 C.ar    1  UNL1       -0.0003
     15 C         138.7071  139.3940  164.2499 C.ar    1  UNL1        0.0011
     16 C         138.7605  139.7841  165.6972 C.ar    1  UNL1        0.0137
     17 C         139.2569  141.1441  166.0895 C.ar    1  UNL1       -0.0031
     18 C         139.6999  142.1140  165.0345 C.ar    1  UNL1       -0.0218
     19 C         140.1963  143.4740  165.4268 C.3     1  UNL1        0.0310
     20 C         138.3175  138.8143  166.7523 C.2     1  UNL1        0.0729
     21 O         138.3537  139.2110  168.1984 O.co2   1  UNL1       -0.5446
     22 O         137.8383  137.4478  166.3613 O.co2   1  UNL1       -0.5446
     23 C         140.5694  145.8285  158.1511 C.3     1  UNL1        0.2525
     24 O         141.4186  145.6031  159.3669 O.3     1  UNL1       -0.4714
     25 N         145.9505  141.7463  156.6583 N.pl3   1  UNL1       -0.2747
     26 C         147.2552  142.4864  156.6633 C.3     1  UNL1        0.1151
     27 C         145.7294  140.6226  155.6895 C.3     1  UNL1        0.1151
     28 C         144.4502  143.0292  161.4648 C.3     1  UNL1        0.1428
     29 N         144.1320  141.9963  162.5051 N.am    1  UNL1       -0.2380
     30 C         144.1452  140.5099  162.3046 C.2     1  UNL1        0.4055
     31 O         144.4789  139.7952  161.0287 O.2     1  UNL1       -0.2262
     32 O         143.7661  139.8635  163.6041 O.3     1  UNL1       -0.4320
     33 C         143.5187  140.9506  164.6077 C.3     1  UNL1        0.2108
     34 C         143.7448  142.2687  163.9285 C.3     1  UNL1        0.1233
     35 C         143.6078  143.6217  164.5614 C.3     1  UNL1        0.0258
     36 C         143.1158  140.7540  166.0390 C.ar    1  UNL1        0.0220
     37 C         142.9494  139.3679  166.5879 C.ar    1  UNL1       -0.0006
     38 C         142.5466  139.1713  168.0193 C.ar    1  UNL1        0.0029
     39 C         142.3101  140.3608  168.9020 C.ar    1  UNL1        0.0372
     40 C         142.4765  141.7469  168.3533 C.ar    1  UNL1        0.1466
     41 C         142.8793  141.9434  166.9218 C.ar    1  UNL1        0.0364
     42 O         142.2399  142.9364  169.2360 O.3     1  UNL1       -0.4045
     43 C         140.9438  143.0735  169.9785 C.3     1  UNL1        0.5753
     44 F         139.6477  143.2106  170.7209 F       1  UNL1       -0.1328
     45 F         141.5953  142.5310  171.2159 F       1  UNL1       -0.1328
     46 F         140.2923  143.6160  168.7410 F       1  UNL1       -0.1328
@<TRIPOS>UNITY_ATOM_ATTR
21 1
charge -1
@<TRIPOS>BOND
     1    23    24    1
     2    24     7    1
     3     7     8   ar
     4     8     9   ar
     5     9    10   ar
     6    10    13    1
     7    13    14   ar
     8    14    15   ar
     9    15    16   ar
    10    16    20    1
    11    20    21   ar
    12    20    22   ar
    13    16    17   ar
    14    17    18   ar
    15    18    19    1
    16    10    11   ar
    17    11    12   ar
    18    12     1    1
    19     1     2   ar
    20     2     3   ar
    21     3     4   ar
    22     4    25    1
    23    25    26    1
    24    25    27    1
    25     4     5   ar
    26     5     6   ar
    27     6    28    1
    28    28    29    1
    29    29    30   am
    30    30    31    2
    31    30    32    1
    32    32    33    1
    33    33    36    1
    34    36    37   ar
    35    37    38   ar
    36    38    39   ar
    37    39    40   ar
    38    40    42    1
    39    42    43    1
    40    43    44    1
    41    43    45    1
    42    43    46    1
    43    40    41   ar
    44    33    34    1
    45    34    35    1
    46    12     7   ar
    47     6     1   ar
    48    34    29    1
    49    18    13   ar
    50    41    36   ar
@<TRIPOS>MOLECULE
*****
 46 50 0 0 0
SMALL
GASTEIGER

@<TRIPOS>ATOM
      1 C         142.5158  142.0245  159.5159 C.ar    1  UNL1        0.0375
      2 C         143.4018  143.0740  158.9130 C.ar    1  UNL1        0.1031
      3 N         142.8809  143.9565  157.8177 N.ar    1  UNL1       -0.2121
      4 C         141.4738  143.7895  157.3253 C.ar    1  UNL1        0.2200
      5 N         140.5878  142.7400  157.9282 N.ar    1  UNL1       -0.2163
      6 C         141.1088  141.8575  159.0235 C.ar    1  UNL1        0.0836
      7 C         143.6341  139.8068  160.2785 C.ar    1  UNL1        0.1387
      8 C         144.1551  138.9243  161.3738 C.ar    1  UNL1        0.0369
      9 C         144.0789  139.3770  162.8019 C.ar    1  UNL1        0.0031
     10 C         143.4816  140.7121  163.1346 C.ar    1  UNL1       -0.0001
     11 C         142.9606  141.5946  162.0393 C.ar    1  UNL1        0.0031
     12 C         143.0369  141.1419  160.6113 C.ar    1  UNL1        0.0367
     13 C         143.4054  141.1647  164.5627 C.ar    1  UNL1       -0.0039
     14 C         142.8908  140.2320  165.6186 C.ar    1  UNL1       -0.0003
     15 C         142.8145  140.6846  167.0467 C.ar    1  UNL1        0.0011
     16 C         143.2529  142.0700  167.4187 C.ar    1  UNL1        0.0137
     17 C         143.7675  143.0027  166.3628 C.ar    1  UNL1       -0.0031
     18 C         143.8438  142.5501  164.9347 C.ar    1  UNL1       -0.0218
     19 C         144.3584  143.4829  163.8787 C.3     1  UNL1        0.0310
     20 C         143.1767  142.5227  168.8468 C.2     1  UNL1        0.0729
     21 O         144.4088  142.5170  169.7021 O.co2   1  UNL1       -0.5446
     22 O         141.8683  142.9810  169.4194 O.co2   1  UNL1       -0.5446
     23 C         142.7316  138.3433  158.3309 C.3     1  UNL1        0.2525
     24 O         143.7103  139.3542  158.8505 O.3     1  UNL1       -0.4714
     25 N         140.9529  144.6721  156.2300 N.pl3   1  UNL1       -0.2747
     26 C         141.0718  144.2403  154.7984 C.3     1  UNL1        0.1151
     27 C         140.3129  145.9863  156.5663 C.3     1  UNL1        0.1151
     28 C         140.2228  140.8080  159.6265 C.3     1  UNL1        0.1428
     29 N         139.6224  141.0229  160.9842 N.am    1  UNL1       -0.2380
     30 C         138.8033  142.2057  161.4087 C.2     1  UNL1        0.4055
     31 O         138.4408  143.3811  160.5502 O.2     1  UNL1       -0.2262
     32 O         138.4103  142.0067  162.8426 O.3     1  UNL1       -0.4320
     33 C         138.9866  140.7009  163.3042 C.3     1  UNL1        0.2108
     34 C         139.7357  140.0930  162.1556 C.3     1  UNL1        0.1233
     35 C         140.4692  138.7848  162.1750 C.3     1  UNL1        0.0258
     36 C         138.8395  140.1074  164.6738 C.ar    1  UNL1        0.0220
     37 C         138.1992  138.7615  164.8433 C.ar    1  UNL1       -0.0006
     38 C         138.0522  138.1679  166.2129 C.ar    1  UNL1        0.0029
     39 C         138.5455  138.9202  167.4133 C.ar    1  UNL1        0.0372
     40 C         139.1858  140.2661  167.2439 C.ar    1  UNL1        0.1466
     41 C         139.3328  140.8596  165.8742 C.ar    1  UNL1        0.0364
     42 O         139.6791  141.0184  168.4442 O.3     1  UNL1       -0.4045
     43 C         139.7343  140.3427  169.7823 C.3     1  UNL1        0.5753
     44 F         139.7895  139.6670  171.1204 F       1  UNL1       -0.1328
     45 F         140.9620  139.5948  169.3540 F       1  UNL1       -0.1328
     46 F         138.5066  141.0905  170.2106 F       1  UNL1       -0.1328
@<TRIPOS>UNITY_ATOM_ATTR
21 1
charge -1
@<TRIPOS>BOND
     1    23    24    1
     2    24     7    1
     3     7     8   ar
     4     8     9   ar
     5     9    10   ar
     6    10    13    1
     7    13    14   ar
     8    14    15   ar
     9    15    16   ar
    10    16    20    1
    11    20    21   ar
    12    20    22   ar
    13    16    17   ar
    14    17    18   ar
    15    18    19    1
    16    10    11   ar
    17    11    12   ar
    18    12     1    1
    19     1     2   ar
    20     2     3   ar
    21     3     4   ar
    22     4    25    1
    23    25    26    1
    24    25    27    1
    25     4     5   ar
    26     5     6   ar
    27     6    28    1
    28    28    29    1
    29    29    30   am
    30    30    31    2
    31    30    32    1
    32    32    33    1
    33    33    36    1
    34    36    37   ar
    35    37    38   ar
    36    38    39   ar
    37    39    40   ar
    38    40    42    1
    39    42    43    1
    40    43    44    1
    41    43    45    1
    42    43    46    1
    43    40    41   ar
    44    33    34    1
    45    34    35    1
    46    12     7   ar
    47     6     1   ar
    48    34    29    1
    49    18    13   ar
    50    41    36   ar
@<TRIPOS>MOLECULE
*****
 46 50 0 0 0
SMALL
GASTEIGER

@<TRIPOS>ATOM
      1 C         139.5235  141.1864  158.2244 C.ar    1  UNL1        0.0375
      2 C         138.2243  140.8722  157.5436 C.ar    1  UNL1        0.1031
      3 N         137.6270  141.8528  156.5785 N.ar    1  UNL1       -0.2121
      4 C         138.3289  143.1476  156.2939 C.ar    1  UNL1        0.2200
      5 N         139.6281  143.4617  156.9746 N.ar    1  UNL1       -0.2163
      6 C         140.2254  142.4811  157.9399 C.ar    1  UNL1        0.0836
      7 C         141.2608  139.3304  158.7604 C.ar    1  UNL1        0.1387
      8 C         141.8580  138.3498  159.7256 C.ar    1  UNL1        0.0369
      9 C         141.3153  138.2445  161.1200 C.ar    1  UNL1        0.0031
     10 C         140.1753  139.1198  161.5492 C.ar    1  UNL1       -0.0001
     11 C         139.5781  140.1004  160.5840 C.ar    1  UNL1        0.0031
     12 C         140.1208  140.2057  159.1896 C.ar    1  UNL1        0.0367
     13 C         139.6326  139.0145  162.9436 C.ar    1  UNL1       -0.0039
     14 C         139.7111  137.7116  163.6826 C.ar    1  UNL1       -0.0003
     15 C         139.1683  137.6063  165.0770 C.ar    1  UNL1        0.0011
     16 C         138.5471  138.8039  165.7324 C.ar    1  UNL1        0.0137
     17 C         138.4686  140.1069  164.9934 C.ar    1  UNL1       -0.0031
     18 C         139.0113  140.2122  163.5990 C.ar    1  UNL1       -0.0218
     19 C         138.9328  141.5152  162.8601 C.3     1  UNL1        0.0310
     20 C         138.0043  138.6986  167.1268 C.2     1  UNL1        0.0729
     21 O         136.8170  137.8255  167.4055 O.co2   1  UNL1       -0.5446
     22 O         138.6489  139.4665  168.2425 O.co2   1  UNL1       -0.5446
     23 C         143.2439  139.7923  157.1468 C.3     1  UNL1        0.2525
     24 O         141.8035  139.4357  157.3660 O.3     1  UNL1       -0.4714
     25 N         137.7316  144.1282  155.3287 N.pl3   1  UNL1       -0.2747
     26 C         136.6740  143.6811  154.3634 C.3     1  UNL1        0.1151
     27 C         138.1918  145.5558  155.3288 C.3     1  UNL1        0.1151
     28 C         141.5246  142.7952  158.6206 C.3     1  UNL1        0.1428
     29 N         141.5302  143.2700  160.0435 N.am    1  UNL1       -0.2380
     30 C         140.7441  144.4243  160.5908 C.2     1  UNL1        0.4055
     31 O         139.8145  145.3066  159.8114 O.2     1  UNL1       -0.2262
     32 O         141.0509  144.5415  162.0545 O.3     1  UNL1       -0.4320
     33 C         142.0266  143.4596  162.4117 C.3     1  UNL1        0.2108
     34 C         142.3228  142.6737  161.1688 C.3     1  UNL1        0.1233
     35 C         143.2489  141.4981  161.0687 C.3     1  UNL1        0.0258
     36 C         142.6046  143.2077  163.7726 C.ar    1  UNL1        0.0220
     37 C         143.8723  143.8936  164.1879 C.ar    1  UNL1       -0.0006
     38 C         144.4503  143.6418  165.5489 C.ar    1  UNL1        0.0029
     39 C         143.7605  142.7040  166.4948 C.ar    1  UNL1        0.0372
     40 C         142.4927  142.0180  166.0797 C.ar    1  UNL1        0.1466
     41 C         141.9148  142.2699  164.7186 C.ar    1  UNL1        0.0364
     42 O         141.8030  141.0802  167.0256 O.3     1  UNL1       -0.4045
     43 C         142.4563  139.7850  167.4072 C.3     1  UNL1        0.5753
     44 F         143.1096  138.4897  167.7888 F       1  UNL1       -0.1328
     45 F         141.9411  139.1540  166.1477 F       1  UNL1       -0.1328
     46 F         142.9715  140.4159  168.6668 F       1  UNL1       -0.1328
@<TRIPOS>UNITY_ATOM_ATTR
21 1
charge -1
@<TRIPOS>BOND
     1    23    24    1
     2    24     7    1
     3     7     8   ar
     4     8     9   ar
     5     9    10   ar
     6    10    13    1
     7    13    14   ar
     8    14    15   ar
     9    15    16   ar
    10    16    20    1
    11    20    21   ar
    12    20    22   ar
    13    16    17   ar
    14    17    18   ar
    15    18    19    1
    16    10    11   ar
    17    11    12   ar
    18    12     1    1
    19     1     2   ar
    20     2     3   ar
    21     3     4   ar
    22     4    25    1
    23    25    26    1
    24    25    27    1
    25     4     5   ar
    26     5     6   ar
    27     6    28    1
    28    28    29    1
    29    29    30   am
    30    30    31    2
    31    30    32    1
    32    32    33    1
    33    33    36    1
    34    36    37   ar
    35    37    38   ar
    36    38    39   ar
    37    39    40   ar
    38    40    42    1
    39    42    43    1
    40    43    44    1
    41    43    45    1
    42    43    46    1
    43    40    41   ar
    44    33    34    1
    45    34    35    1
    46    12     7   ar
    47     6     1   ar
    48    34    29    1
    49    18    13   ar
    50    41    36   ar
@<TRIPOS>MOLECULE
*****
 46 50 0 0 0
SMALL
GASTEIGER

@<TRIPOS>ATOM
      1 C         139.9767  140.3524  158.5038 C.ar    1  UNL1        0.0375
      2 C         140.3325  141.0994  157.2526 C.ar    1  UNL1        0.1031
      3 N         139.2485  141.6356  156.3653 N.ar    1  UNL1       -0.2121
      4 C         137.8086  141.4248  156.7291 C.ar    1  UNL1        0.2200
      5 N         137.4527  140.6777  157.9802 N.ar    1  UNL1       -0.2163
      6 C         138.5368  140.1415  158.8676 C.ar    1  UNL1        0.0836
      7 C         141.6992  138.4949  159.0806 C.ar    1  UNL1        0.1387
      8 C         142.7832  137.9588  159.9679 C.ar    1  UNL1        0.0369
      9 C         143.2288  138.7440  161.1658 C.ar    1  UNL1        0.0031
     10 C         142.5904  140.0653  161.4763 C.ar    1  UNL1       -0.0001
     11 C         141.5064  140.6014  160.5890 C.ar    1  UNL1        0.0031
     12 C         141.0608  139.8162  159.3911 C.ar    1  UNL1        0.0367
     13 C         143.0360  140.8505  162.6742 C.ar    1  UNL1       -0.0039
     14 C         143.7238  142.1709  162.4919 C.ar    1  UNL1       -0.0003
     15 C         144.1694  142.9561  163.6898 C.ar    1  UNL1        0.0011
     16 C         143.9272  142.4209  165.0699 C.ar    1  UNL1        0.0137
     17 C         143.2394  141.1004  165.2522 C.ar    1  UNL1       -0.0031
     18 C         142.7938  140.3152  164.0543 C.ar    1  UNL1       -0.0218
     19 C         142.1059  138.9947  164.2366 C.3     1  UNL1        0.0310
     20 C         144.3728  143.2061  166.2678 C.2     1  UNL1        0.0729
     21 O         143.8596  142.8498  167.6315 O.co2   1  UNL1       -0.5446
     22 O         145.3317  144.3476  166.1020 O.co2   1  UNL1       -0.5446
     23 C         142.1625  137.5687  156.6979 C.3     1  UNL1        0.2525
     24 O         141.2536  137.7097  157.8827 O.3     1  UNL1       -0.4714
     25 N         136.7246  141.9609  155.8417 N.pl3   1  UNL1       -0.2747
     26 C         136.7019  143.4168  155.4814 C.3     1  UNL1        0.1151
     27 C         135.6633  141.0412  155.3148 C.3     1  UNL1        0.1151
     28 C         138.1810  139.3945  160.1187 C.3     1  UNL1        0.1428
     29 N         138.2312  140.0894  161.4471 N.am    1  UNL1       -0.2380
     30 C         137.9807  141.5485  161.6888 C.2     1  UNL1        0.4055
     31 O         137.6360  142.5687  160.6446 O.2     1  UNL1       -0.2262
     32 O         138.1354  141.8081  163.1581 O.3     1  UNL1       -0.4320
     33 C         138.4815  140.5095  163.8244 C.3     1  UNL1        0.2108
     34 C         138.5407  139.4473  162.7669 C.3     1  UNL1        0.1233
     35 C         138.8544  137.9976  162.9900 C.3     1  UNL1        0.0258
     36 C         138.7256  140.3084  165.2906 C.ar    1  UNL1        0.0220
     37 C         137.9897  139.2325  166.0329 C.ar    1  UNL1       -0.0006
     38 C         138.2338  139.0315  167.4991 C.ar    1  UNL1        0.0029
     39 C         139.2137  139.9063  168.2232 C.ar    1  UNL1        0.0372
     40 C         139.9497  140.9823  167.4810 C.ar    1  UNL1        0.1466
     41 C         139.7055  141.1833  166.0147 C.ar    1  UNL1        0.0364
     42 O         140.9296  141.8571  168.2051 O.3     1  UNL1       -0.4045
     43 C         140.4468  142.8192  169.2498 C.3     1  UNL1        0.5753
     44 F         139.9641  143.7813  170.2944 F       1  UNL1       -0.1328
     45 F         139.9960  143.7617  168.1734 F       1  UNL1       -0.1328
     46 F         140.8977  141.8767  170.3261 F       1  UNL1       -0.1328
@<TRIPOS>UNITY_ATOM_ATTR
21 1
charge -1
@<TRIPOS>BOND
     1    23    24    1
     2    24     7    1
     3     7     8   ar
     4     8     9   ar
     5     9    10   ar
     6    10    13    1
     7    13    14   ar
     8    14    15   ar
     9    15    16   ar
    10    16    20    1
    11    20    21   ar
    12    20    22   ar
    13    16    17   ar
    14    17    18   ar
    15    18    19    1
    16    10    11   ar
    17    11    12   ar
    18    12     1    1
    19     1     2   ar
    20     2     3   ar
    21     3     4   ar
    22     4    25    1
    23    25    26    1
    24    25    27    1
    25     4     5   ar
    26     5     6   ar
    27     6    28    1
    28    28    29    1
    29    29    30   am
    30    30    31    2
    31    30    32    1
    32    32    33    1
    33    33    36    1
    34    36    37   ar
    35    37    38   ar
    36    38    39   ar
    37    39    40   ar
    38    40    42    1
    39    42    43    1
    40    43    44    1
    41    43    45    1
    42    43    46    1
    43    40    41   ar
    44    33    34    1
    45    34    35    1
    46    12     7   ar
    47     6     1   ar
    48    34    29    1
    49    18    13   ar
    50    41    36   ar
@<TRIPOS>MOLECULE
*****
 46 50 0 0 0
SMALL
GASTEIGER

@<TRIPOS>ATOM
      1 C         141.0730  138.8825  158.2480 C.ar    1  UNL1        0.0375
      2 C         140.1588  137.9767  157.4775 C.ar    1  UNL1        0.1031
      3 N         140.7299  136.9674  156.5263 N.ar    1  UNL1       -0.2121
      4 C         142.2154  136.8637  156.3455 C.ar    1  UNL1        0.2200
      5 N         143.1297  137.7695  157.1160 N.ar    1  UNL1       -0.2163
      6 C         142.5585  138.7789  158.0673 C.ar    1  UNL1        0.0836
      7 C         140.2993  141.3103  158.7553 C.ar    1  UNL1        0.1387
      8 C         139.7281  142.3196  159.7065 C.ar    1  UNL1        0.0369
      9 C         139.3594  141.9106  161.1018 C.ar    1  UNL1        0.0031
     10 C         139.5619  140.4922  161.5458 C.ar    1  UNL1       -0.0001
     11 C         140.1331  139.4829  160.5945 C.ar    1  UNL1        0.0031
     12 C         140.5018  139.8919  159.1993 C.ar    1  UNL1        0.0367
     13 C         139.1932  140.0832  162.9411 C.ar    1  UNL1       -0.0039
     14 C         138.5286  141.0653  163.8597 C.ar    1  UNL1       -0.0003
     15 C         138.1600  140.6563  165.2549 C.ar    1  UNL1        0.0011
     16 C         138.4558  139.2652  165.7316 C.ar    1  UNL1        0.0137
     17 C         139.1204  138.2831  164.8130 C.ar    1  UNL1       -0.0031
     18 C         139.4890  138.6921  163.4177 C.ar    1  UNL1       -0.0218
     19 C         140.1536  137.7100  162.4991 C.3     1  UNL1        0.0310
     20 C         138.0871  138.8561  167.1269 C.2     1  UNL1        0.0729
     21 O         137.0224  137.8233  167.3490 O.co2   1  UNL1       -0.5446
     22 O         138.7832  139.4800  168.3000 O.co2   1  UNL1       -0.5446
     23 C         141.7623  142.7205  157.1364 C.3     1  UNL1        0.2525
     24 O         140.6680  141.7193  157.3600 O.3     1  UNL1       -0.4714
     25 N         142.7866  135.8543  155.3943 N.pl3   1  UNL1       -0.2747
     26 C         143.8163  134.8733  155.8710 C.3     1  UNL1        0.1151
     27 C         142.3281  135.8261  153.9664 C.3     1  UNL1        0.1151
     28 C         143.4727  139.6847  158.8378 C.3     1  UNL1        0.1428
     29 N         143.5102  139.6148  160.3357 N.am    1  UNL1       -0.2380
     30 C         143.6439  138.3666  161.1569 C.2     1  UNL1        0.4055
     31 O         143.7637  136.9695  160.6244 O.2     1  UNL1       -0.2262
     32 O         143.6368  138.7611  162.6042 O.3     1  UNL1       -0.4320
     33 C         143.4987  140.2530  162.6773 C.3     1  UNL1        0.2108
     34 C         143.4205  140.7805  161.2753 C.3     1  UNL1        0.1233
     35 C         143.2775  142.2209  160.8820 C.3     1  UNL1        0.0258
     36 C         143.4479  141.0732  163.9321 C.ar    1  UNL1        0.0220
     37 C         144.5029  142.1063  164.1962 C.ar    1  UNL1       -0.0006
     38 C         144.4520  142.9265  165.4510 C.ar    1  UNL1        0.0029
     39 C         143.3461  142.7137  166.4418 C.ar    1  UNL1        0.0372
     40 C         142.2910  141.6806  166.1777 C.ar    1  UNL1        0.1466
     41 C         142.3419  140.8604  164.9229 C.ar    1  UNL1        0.0364
     42 O         141.1851  141.4678  167.1685 O.3     1  UNL1       -0.4045
     43 C         140.6181  142.6346  167.9218 C.3     1  UNL1        0.5753
     44 F         140.0512  143.8013  168.6751 F       1  UNL1       -0.1328
     45 F         140.1036  143.2138  166.6374 F       1  UNL1       -0.1328
     46 F         141.1327  142.0553  169.2062 F       1  UNL1       -0.1328
@<TRIPOS>UNITY_ATOM_ATTR
21 1
charge -1
@<TRIPOS>BOND
     1    23    24    1
     2    24     7    1
     3     7     8   ar
     4     8     9   ar
     5     9    10   ar
     6    10    13    1
     7    13    14   ar
     8    14    15   ar
     9    15    16   ar
    10    16    20    1
    11    20    21   ar
    12    20    22   ar
    13    16    17   ar
    14    17    18   ar
    15    18    19    1
    16    10    11   ar
    17    11    12   ar
    18    12     1    1
    19     1     2   ar
    20     2     3   ar
    21     3     4   ar
    22     4    25    1
    23    25    26    1
    24    25    27    1
    25     4     5   ar
    26     5     6   ar
    27     6    28    1
    28    28    29    1
    29    29    30   am
    30    30    31    2
    31    30    32    1
    32    32    33    1
    33    33    36    1
    34    36    37   ar
    35    37    38   ar
    36    38    39   ar
    37    39    40   ar
    38    40    42    1
    39    42    43    1
    40    43    44    1
    41    43    45    1
    42    43    46    1
    43    40    41   ar
    44    33    34    1
    45    34    35    1
    46    12     7   ar
    47     6     1   ar
    48    34    29    1
    49    18    13   ar
    50    41    36   ar
@<TRIPOS>MOLECULE
*****
 46 50 0 0 0
SMALL
GASTEIGER

@<TRIPOS>ATOM
      1 C         142.0516  141.4764  158.8005 C.ar    1  UNL1        0.0375
      2 C         142.7818  140.4360  158.0041 C.ar    1  UNL1        0.1031
      3 N         144.1728  140.7071  157.5127 N.ar    1  UNL1       -0.2121
      4 C         144.8337  142.0187  157.8178 C.ar    1  UNL1        0.2200
      5 N         144.1035  143.0591  158.6142 N.ar    1  UNL1       -0.2163
      6 C         142.7124  142.7880  159.1056 C.ar    1  UNL1        0.0836
      7 C         139.4928  141.3653  158.3641 C.ar    1  UNL1        0.1387
      8 C         138.1018  141.0942  158.8555 C.ar    1  UNL1        0.0369
      9 C         137.8785  140.6629  160.2747 C.ar    1  UNL1        0.0031
     10 C         139.0461  140.5029  161.2025 C.ar    1  UNL1       -0.0001
     11 C         140.4372  140.7740  160.7111 C.ar    1  UNL1        0.0031
     12 C         140.6605  141.2053  159.2919 C.ar    1  UNL1        0.0367
     13 C         138.8228  140.0716  162.6217 C.ar    1  UNL1       -0.0039
     14 C         138.2586  141.0390  163.6196 C.ar    1  UNL1       -0.0003
     15 C         138.0352  140.6078  165.0388 C.ar    1  UNL1        0.0011
     16 C         138.3761  139.2092  165.4602 C.ar    1  UNL1        0.0137
     17 C         138.9404  138.2418  164.4623 C.ar    1  UNL1       -0.0031
     18 C         139.1637  138.6730  163.0431 C.ar    1  UNL1       -0.0218
     19 C         139.7280  137.7055  162.0452 C.3     1  UNL1        0.0310
     20 C         138.1528  138.7780  166.8794 C.2     1  UNL1        0.0729
     21 O         137.1539  137.7024  167.1881 O.co2   1  UNL1       -0.5446
     22 O         138.9283  139.4223  167.9899 O.co2   1  UNL1       -0.5446
     23 C         139.6322  143.2491  156.5803 C.3     1  UNL1        0.2525
     24 O         139.7162  141.7966  156.9449 O.3     1  UNL1       -0.4714
     25 N         146.2248  142.2898  157.3264 N.pl3   1  UNL1       -0.2747
     26 C         146.6696  141.7512  155.9990 C.3     1  UNL1        0.1151
     27 C         147.1709  143.0996  158.1624 C.3     1  UNL1        0.1151
     28 C         141.9822  143.8284  159.9020 C.3     1  UNL1        0.1428
     29 N         141.5901  143.5472  161.3224 N.am    1  UNL1       -0.2380
     30 C         140.3755  144.0794  162.0234 C.2     1  UNL1        0.4055
     31 O         139.3397  144.9860  161.4274 O.2     1  UNL1       -0.2262
     32 O         140.3784  143.5456  163.4253 O.3     1  UNL1       -0.4320
     33 C         141.5949  142.6837  163.5906 C.3     1  UNL1        0.2108
     34 C         142.3438  142.6847  162.2909 C.3     1  UNL1        0.1233
     35 C         143.6218  141.9519  162.0091 C.3     1  UNL1        0.0258
     36 C         141.9927  141.9496  164.8366 C.ar    1  UNL1        0.0220
     37 C         141.8231  140.4614  164.9170 C.ar    1  UNL1       -0.0006
     38 C         142.2208  139.7274  166.1631 C.ar    1  UNL1        0.0029
     39 C         142.7883  140.4815  167.3290 C.ar    1  UNL1        0.0372
     40 C         142.9580  141.9697  167.2487 C.ar    1  UNL1        0.1466
     41 C         142.5602  142.7037  166.0025 C.ar    1  UNL1        0.0364
     42 O         143.5254  142.7239  168.4146 O.3     1  UNL1       -0.4045
     43 C         142.9601  142.5170  169.7885 C.3     1  UNL1        0.5753
     44 F         142.3947  142.3102  171.1625 F       1  UNL1       -0.1328
     45 F         141.7784  143.3688  169.4305 F       1  UNL1       -0.1328
     46 F         144.1418  141.6653  170.1466 F       1  UNL1       -0.1328
@<TRIPOS>UNITY_ATOM_ATTR
21 1
charge -1
@<TRIPOS>BOND
     1    23    24    1
     2    24     7    1
     3     7     8   ar
     4     8     9   ar
     5     9    10   ar
     6    10    13    1
     7    13    14   ar
     8    14    15   ar
     9    15    16   ar
    10    16    20    1
    11    20    21   ar
    12    20    22   ar
    13    16    17   ar
    14    17    18   ar
    15    18    19    1
    16    10    11   ar
    17    11    12   ar
    18    12     1    1
    19     1     2   ar
    20     2     3   ar
    21     3     4   ar
    22     4    25    1
    23    25    26    1
    24    25    27    1
    25     4     5   ar
    26     5     6   ar
    27     6    28    1
    28    28    29    1
    29    29    30   am
    30    30    31    2
    31    30    32    1
    32    32    33    1
    33    33    36    1
    34    36    37   ar
    35    37    38   ar
    36    38    39   ar
    37    39    40   ar
    38    40    42    1
    39    42    43    1
    40    43    44    1
    41    43    45    1
    42    43    46    1
    43    40    41   ar
    44    33    34    1
    45    34    35    1
    46    12     7   ar
    47     6     1   ar
    48    34    29    1
    49    18    13   ar
    50    41    36   ar
@<TRIPOS>MOLECULE
*****
 46 50 0 0 0
SMALL
GASTEIGER

@<TRIPOS>ATOM
      1 C         142.0636  141.0205  158.3482 C.ar    1  UNL1        0.0375
      2 C         142.9398  139.9110  157.8470 C.ar    1  UNL1        0.1031
      3 N         144.3167  140.2155  157.3356 N.ar    1  UNL1       -0.2121
      4 C         144.8174  141.6295  157.3255 C.ar    1  UNL1        0.2200
      5 N         143.9411  142.7390  157.8268 N.ar    1  UNL1       -0.2163
      6 C         142.5642  142.4344  158.3381 C.ar    1  UNL1        0.0836
      7 C         139.5198  140.7151  157.9171 C.ar    1  UNL1        0.1387
      8 C         138.1430  140.4106  158.4285 C.ar    1  UNL1        0.0369
      9 C         137.9330  140.1070  159.8824 C.ar    1  UNL1        0.0031
     10 C         139.0999  140.1078  160.8249 C.ar    1  UNL1       -0.0001
     11 C         140.4767  140.4123  160.3135 C.ar    1  UNL1        0.0031
     12 C         140.6867  140.7160  158.8596 C.ar    1  UNL1        0.0367
     13 C         138.8900  139.8042  162.2787 C.ar    1  UNL1       -0.0039
     14 C         139.0525  138.4008  162.7829 C.ar    1  UNL1       -0.0003
     15 C         138.8425  138.0972  164.2368 C.ar    1  UNL1        0.0011
     16 C         138.4701  139.1969  165.1865 C.ar    1  UNL1        0.0137
     17 C         138.3076  140.6002  164.6823 C.ar    1  UNL1       -0.0031
     18 C         138.5176  140.9038  163.2284 C.ar    1  UNL1       -0.0218
     19 C         138.3551  142.3073  162.7243 C.3     1  UNL1        0.0310
     20 C         138.2602  138.8932  166.6403 C.2     1  UNL1        0.0729
     21 O         139.0073  139.6693  167.6841 O.co2   1  UNL1       -0.5446
     22 O         137.3032  137.8135  167.0504 O.co2   1  UNL1       -0.5446
     23 C         139.5732  142.4232  155.9602 C.3     1  UNL1        0.2525
     24 O         139.7297  141.0188  156.4633 O.3     1  UNL1       -0.4714
     25 N         146.1942  141.9340  156.8142 N.pl3   1  UNL1       -0.2747
     26 C         147.0971  142.8474  157.5890 C.3     1  UNL1        0.1151
     27 C         146.6682  141.3249  155.5280 C.3     1  UNL1        0.1151
     28 C         141.6880  143.5439  158.8394 C.3     1  UNL1        0.1428
     29 N         141.6218  143.8422  160.3080 N.am    1  UNL1       -0.2380
     30 C         140.6817  144.8051  160.9706 C.2     1  UNL1        0.4055
     31 O         139.6427  145.6387  160.2811 O.2     1  UNL1       -0.2262
     32 O         140.9631  144.7880  162.4440 O.3     1  UNL1       -0.4320
     33 C         142.0771  143.8145  162.6918 C.3     1  UNL1        0.2108
     34 C         142.4842  143.2300  161.3717 C.3     1  UNL1        0.1233
     35 C         143.5640  142.2120  161.1536 C.3     1  UNL1        0.0258
     36 C         142.6783  143.4836  164.0255 C.ar    1  UNL1        0.0220
     37 C         143.9968  144.0787  164.4224 C.ar    1  UNL1       -0.0006
     38 C         144.5981  143.7478  165.7561 C.ar    1  UNL1        0.0029
     39 C         143.8809  142.8218  166.6931 C.ar    1  UNL1        0.0372
     40 C         142.5624  142.2266  166.2964 C.ar    1  UNL1        0.1466
     41 C         141.9612  142.5575  164.9626 C.ar    1  UNL1        0.0364
     42 O         141.8452  141.3005  167.2334 O.3     1  UNL1       -0.4045
     43 C         142.4502  139.9740  167.5862 C.3     1  UNL1        0.5753
     44 F         143.0553  138.6476  167.9390 F       1  UNL1       -0.1328
     45 F         141.8600  139.3745  166.3444 F       1  UNL1       -0.1328
     46 F         143.0405  140.5736  168.8281 F       1  UNL1       -0.1328
@<TRIPOS>UNITY_ATOM_ATTR
21 1
charge -1
@<TRIPOS>BOND
     1    23    24    1
     2    24     7    1
     3     7     8   ar
     4     8     9   ar
     5     9    10   ar
     6    10    13    1
     7    13    14   ar
     8    14    15   ar
     9    15    16   ar
    10    16    20    1
    11    20    21   ar
    12    20    22   ar
    13    16    17   ar
    14    17    18   ar
    15    18    19    1
    16    10    11   ar
    17    11    12   ar
    18    12     1    1
    19     1     2   ar
    20     2     3   ar
    21     3     4   ar
    22     4    25    1
    23    25    26    1
    24    25    27    1
    25     4     5   ar
    26     5     6   ar
    27     6    28    1
    28    28    29    1
    29    29    30   am
    30    30    31    2
    31    30    32    1
    32    32    33    1
    33    33    36    1
    34    36    37   ar
    35    37    38   ar
    36    38    39   ar
    37    39    40   ar
    38    40    42    1
    39    42    43    1
    40    43    44    1
    41    43    45    1
    42    43    46    1
    43    40    41   ar
    44    33    34    1
    45    34    35    1
    46    12     7   ar
    47     6     1   ar
    48    34    29    1
    49    18    13   ar
    50    41    36   ar
@<TRIPOS>MOLECULE
*****
 46 50 0 0 0
SMALL
GASTEIGER

@<TRIPOS>ATOM
      1 C         140.5900  142.4124  158.4693 C.ar    1  UNL1        0.0375
      2 C         139.5734  142.0808  157.4174 C.ar    1  UNL1        0.1031
      3 N         138.9909  143.1707  156.5672 N.ar    1  UNL1       -0.2121
      4 C         139.4251  144.5923  156.7689 C.ar    1  UNL1        0.2200
      5 N         140.4417  144.9239  157.8209 N.ar    1  UNL1       -0.2163
      6 C         141.0241  143.8339  158.6711 C.ar    1  UNL1        0.0836
      7 C         142.4347  140.6329  158.8939 C.ar    1  UNL1        0.1387
      8 C         143.0171  139.5429  159.7441 C.ar    1  UNL1        0.0369
      9 C         142.3373  139.1426  161.0198 C.ar    1  UNL1        0.0031
     10 C         141.0750  139.8322  161.4454 C.ar    1  UNL1       -0.0001
     11 C         140.4926  140.9221  160.5952 C.ar    1  UNL1        0.0031
     12 C         141.1725  141.3224  159.3195 C.ar    1  UNL1        0.0367
     13 C         140.3952  139.4318  162.7212 C.ar    1  UNL1       -0.0039
     14 C         140.9058  139.9432  164.0356 C.ar    1  UNL1       -0.0003
     15 C         140.2260  139.5428  165.3113 C.ar    1  UNL1        0.0011
     16 C         139.0355  138.6312  165.2727 C.ar    1  UNL1        0.0137
     17 C         138.5248  138.1198  163.9582 C.ar    1  UNL1       -0.0031
     18 C         139.2047  138.5202  162.6825 C.ar    1  UNL1       -0.0218
     19 C         138.6940  138.0088  161.3680 C.3     1  UNL1        0.0310
     20 C         138.3556  138.2308  166.5484 C.2     1  UNL1        0.0729
     21 O         138.4179  139.1317  167.7461 O.co2   1  UNL1       -0.5446
     22 O         137.6135  136.9297  166.6265 O.co2   1  UNL1       -0.5446
     23 C         144.4225  140.4060  157.2365 C.3     1  UNL1        0.2525
     24 O         143.1145  141.0332  157.6182 O.3     1  UNL1       -0.4714
     25 N         138.8426  145.6822  155.9188 N.pl3   1  UNL1       -0.2747
     26 C         139.3775  147.0799  156.0208 C.3     1  UNL1        0.1151
     27 C         137.7252  145.3744  154.9666 C.3     1  UNL1        0.1151
     28 C         142.0407  144.1656  159.7230 C.3     1  UNL1        0.1428
     29 N         141.6365  144.2178  161.1666 N.am    1  UNL1       -0.2380
     30 C         140.5152  145.0332  161.7392 C.2     1  UNL1        0.4055
     31 O         139.6012  145.9394  160.9688 O.2     1  UNL1       -0.2262
     32 O         140.4683  144.7832  163.2175 O.3     1  UNL1       -0.4320
     33 C         141.5607  143.8133  163.5585 C.3     1  UNL1        0.2108
     34 C         142.2826  143.4640  162.2910 C.3     1  UNL1        0.1233
     35 C         143.4464  142.5255  162.1691 C.3     1  UNL1        0.0258
     36 C         141.8757  143.2856  164.9267 C.ar    1  UNL1        0.0220
     37 C         143.2980  143.0090  165.3149 C.ar    1  UNL1       -0.0006
     38 C         143.6131  142.4813  166.6831 C.ar    1  UNL1        0.0029
     39 C         142.5058  142.2301  167.6633 C.ar    1  UNL1        0.0372
     40 C         141.0835  142.5066  167.2753 C.ar    1  UNL1        0.1466
     41 C         140.7685  143.0344  165.9070 C.ar    1  UNL1        0.0364
     42 O         139.9762  142.2554  168.2556 O.3     1  UNL1       -0.4045
     43 C         140.2359  142.3774  169.7279 C.3     1  UNL1        0.5753
     44 F         140.4956  142.4995  171.2002 F       1  UNL1       -0.1328
     45 F         140.3257  143.8683  169.5885 F       1  UNL1       -0.1328
     46 F         140.1462  140.8866  169.8673 F       1  UNL1       -0.1328
@<TRIPOS>UNITY_ATOM_ATTR
21 1
charge -1
@<TRIPOS>BOND
     1    23    24    1
     2    24     7    1
     3     7     8   ar
     4     8     9   ar
     5     9    10   ar
     6    10    13    1
     7    13    14   ar
     8    14    15   ar
     9    15    16   ar
    10    16    20    1
    11    20    21   ar
    12    20    22   ar
    13    16    17   ar
    14    17    18   ar
    15    18    19    1
    16    10    11   ar
    17    11    12   ar
    18    12     1    1
    19     1     2   ar
    20     2     3   ar
    21     3     4   ar
    22     4    25    1
    23    25    26    1
    24    25    27    1
    25     4     5   ar
    26     5     6   ar
    27     6    28    1
    28    28    29    1
    29    29    30   am
    30    30    31    2
    31    30    32    1
    32    32    33    1
    33    33    36    1
    34    36    37   ar
    35    37    38   ar
    36    38    39   ar
    37    39    40   ar
    38    40    42    1
    39    42    43    1
    40    43    44    1
    41    43    45    1
    42    43    46    1
    43    40    41   ar
    44    33    34    1
    45    34    35    1
    46    12     7   ar
    47     6     1   ar
    48    34    29    1
    49    18    13   ar
    50    41    36   ar
@<TRIPOS>MOLECULE
*****
 46 50 0 0 0
SMALL
GASTEIGER

@<TRIPOS>ATOM
      1 C         139.8126  142.9062  161.4913 C.ar    1  UNL1        0.0375
      2 C         139.3753  144.3209  161.2514 C.ar    1  UNL1        0.1031
      3 N         139.7276  145.0068  159.9648 N.ar    1  UNL1       -0.2121
      4 C         140.5171  144.2782  158.9181 C.ar    1  UNL1        0.2200
      5 N         140.9544  142.8635  159.1579 N.ar    1  UNL1       -0.2163
      6 C         140.6022  142.1775  160.4446 C.ar    1  UNL1        0.0836
      7 C         138.2915  141.2817  162.8320 C.ar    1  UNL1        0.1387
      8 C         137.9393  140.5958  164.1186 C.ar    1  UNL1        0.0369
      9 C         138.7559  140.8485  165.3512 C.ar    1  UNL1        0.0031
     10 C         139.9247  141.7870  165.2972 C.ar    1  UNL1       -0.0001
     11 C         140.2770  142.4729  164.0106 C.ar    1  UNL1        0.0031
     12 C         139.4603  142.2203  162.7780 C.ar    1  UNL1        0.0367
     13 C         140.7413  142.0396  166.5298 C.ar    1  UNL1       -0.0039
     14 C         140.1770  142.8662  167.6470 C.ar    1  UNL1       -0.0003
     15 C         140.9936  143.1188  168.8796 C.ar    1  UNL1        0.0011
     16 C         142.3746  142.5448  168.9950 C.ar    1  UNL1        0.0137
     17 C         142.9389  141.7182  167.8778 C.ar    1  UNL1       -0.0031
     18 C         142.1223  141.4656  166.6452 C.ar    1  UNL1       -0.0218
     19 C         142.6868  140.6389  165.5280 C.3     1  UNL1        0.0310
     20 C         143.1912  142.7974  170.2276 C.2     1  UNL1        0.0729
     21 O         144.6842  142.9027  170.1296 O.co2   1  UNL1       -0.5446
     22 O         142.5148  142.9448  171.5583 O.co2   1  UNL1       -0.5446
     23 C         137.5061  139.6811  160.9423 C.3     1  UNL1        0.2525
     24 O         137.4749  141.0291  161.5994 O.3     1  UNL1       -0.4714
     25 N         140.8694  144.9641  157.6315 N.pl3   1  UNL1       -0.2747
     26 C         142.1965  145.6476  157.4848 C.3     1  UNL1        0.1151
     27 C         139.8944  144.9667  156.4916 C.3     1  UNL1        0.1151
     28 C         141.0395  140.7629  160.6845 C.3     1  UNL1        0.1428
     29 N         141.9359  140.0772  159.6964 N.am    1  UNL1       -0.2380
     30 C         143.4016  140.3355  159.5086 C.2     1  UNL1        0.4055
     31 O         144.2280  141.3247  160.2757 O.2     1  UNL1       -0.2262
     32 O         143.8957  139.4308  158.4188 O.3     1  UNL1       -0.4320
     33 C         142.7354  138.6135  157.9332 C.3     1  UNL1        0.2108
     34 C         141.5242  139.0130  158.7228 C.3     1  UNL1        0.1233
     35 C         140.1437  138.4476  158.5664 C.3     1  UNL1        0.0258
     36 C         142.7786  137.5784  156.8485 C.ar    1  UNL1        0.0220
     37 C         142.7994  138.0006  155.4093 C.ar    1  UNL1       -0.0006
     38 C         142.8427  136.9655  154.3246 C.ar    1  UNL1        0.0029
     39 C         142.8652  135.5082  154.6790 C.ar    1  UNL1        0.0372
     40 C         142.8445  135.0859  156.1183 C.ar    1  UNL1        0.1466
     41 C         142.8012  136.1211  157.2030 C.ar    1  UNL1        0.0364
     42 O         142.8670  133.6285  156.4727 O.3     1  UNL1       -0.4045
     43 C         144.1263  132.8330  156.2958 C.3     1  UNL1        0.5753
     44 F         145.3857  132.0375  156.1188 F       1  UNL1       -0.1328
     45 F         144.6264  133.3302  157.6197 F       1  UNL1       -0.1328
     46 F         143.6263  132.3358  154.9718 F       1  UNL1       -0.1328
@<TRIPOS>UNITY_ATOM_ATTR
21 1
charge -1
@<TRIPOS>BOND
     1    23    24    1
     2    24     7    1
     3     7     8   ar
     4     8     9   ar
     5     9    10   ar
     6    10    13    1
     7    13    14   ar
     8    14    15   ar
     9    15    16   ar
    10    16    20    1
    11    20    21   ar
    12    20    22   ar
    13    16    17   ar
    14    17    18   ar
    15    18    19    1
    16    10    11   ar
    17    11    12   ar
    18    12     1    1
    19     1     2   ar
    20     2     3   ar
    21     3     4   ar
    22     4    25    1
    23    25    26    1
    24    25    27    1
    25     4     5   ar
    26     5     6   ar
    27     6    28    1
    28    28    29    1
    29    29    30   am
    30    30    31    2
    31    30    32    1
    32    32    33    1
    33    33    36    1
    34    36    37   ar
    35    37    38   ar
    36    38    39   ar
    37    39    40   ar
    38    40    42    1
    39    42    43    1
    40    43    44    1
    41    43    45    1
    42    43    46    1
    43    40    41   ar
    44    33    34    1
    45    34    35    1
    46    12     7   ar
    47     6     1   ar
    48    34    29    1
    49    18    13   ar
    50    41    36   ar
