@<TRIPOS>MOLECULE
*****
 30 34 0 0 0
SMALL
GASTEIGER

@<TRIPOS>ATOM
      1 C         140.5525  142.6499  163.9128 C.3     1  UNL1        0.0892
      2 C         139.3820  142.1223  164.6883 C.3     1  UNL1        0.1584
      3 O         139.5508  141.7281  166.1258 O.3     1  UNL1       -0.3490
      4 C         140.8902  141.8614  166.7877 C.3     1  UNL1        0.1538
      5 C         142.0609  142.3890  166.0121 C.3     1  UNL1        0.0841
      6 N         143.4002  142.5222  166.6740 N.3     1  UNL1       -0.3199
      7 C         141.8920  142.7832  164.5747 C.3     1  UNL1        0.0368
      8 H         143.3330  142.2113  167.6432 H       1  UNL1        0.1189
      9 H         143.6958  143.4982  166.6499 H       1  UNL1        0.1189
     10 C         138.6977  144.3281  155.7312 C.3     1  UNL1        0.0523
     11 C         139.8295  144.7316  156.6290 C.ar    1  UNL1        0.0640
     12 C         140.9268  145.6094  156.1042 C.ar    1  UNL1        0.0355
     13 C         142.0587  146.0129  157.0020 C.ar    1  UNL1        0.1018
     14 N         142.0932  145.5388  158.4247 N.ar    1  UNL1       -0.2252
     15 C         140.9959  144.6611  158.9495 C.ar    1  UNL1        0.1619
     16 C         140.7620  144.0434  160.2963 C.ar    1  UNL1        0.0463
     17 C         139.4857  143.2581  160.2308 C.ar    1  UNL1        0.0954
     18 N         138.9307  143.3904  158.8436 N.ar    1  UNL1       -0.1673
     19 N         139.8641  144.2575  158.0516 N.ar    1  UNL1       -0.2167
     20 C         139.2518  142.6405  161.5776 C.3     1  UNL1        0.1205
     21 N         140.3837  143.0441  162.4755 N.3     1  UNL1       -0.2627
     22 C         141.3171  143.9112  161.6836 C.3     1  UNL1        0.1038
     23 C         141.0590  141.4672  168.2250 C.ar    1  UNL1        0.0355
     24 C         141.5825  140.1051  168.5727 C.ar    1  UNL1        0.0300
     25 C         141.7512  139.7110  170.0101 C.ar    1  UNL1        0.1400
     26 F         142.2746  138.3489  170.3577 F       1  UNL1       -0.2042
     27 C         141.3966  140.6788  171.0998 C.ar    1  UNL1        0.0319
     28 C         140.8732  142.0408  170.7521 C.ar    1  UNL1        0.0317
     29 C         140.7044  142.4350  169.3147 C.ar    1  UNL1        0.1386
     30 F         140.1810  143.7970  168.9671 F       1  UNL1       -0.2044
@<TRIPOS>BOND
     1    10    11    1
     2    11    12   ar
     3    12    13   ar
     4    13    14   ar
     5    14    15   ar
     6    15    16   ar
     7    16    17   ar
     8    17    18   ar
     9    18    19   ar
    10    17    20    1
    11    20    21    1
    12     1    21    1
    13     1     2    1
    14     2     3    1
    15     3     4    1
    16     4    23    1
    17    23    24   ar
    18    24    25   ar
    19    25    26    1
    20    25    27   ar
    21    27    28   ar
    22    28    29   ar
    23    29    30    1
    24     4     5    1
    25     5     6    1
    26     5     7    1
    27    21    22    1
    28    19    11   ar
    29     7     1    1
    30    19    15   ar
    31    29    23   ar
    32    22    16    1
    33     6     8    1
    34     6     9    1
@<TRIPOS>MOLECULE
*****
 30 34 0 0 0
SMALL
GASTEIGER

@<TRIPOS>ATOM
      1 C         141.0421  139.8943  163.4107 C.3     1  UNL1        0.0892
      2 C         139.8077  140.6915  163.7118 C.3     1  UNL1        0.1584
      3 O         139.5393  141.1582  165.1119 O.3     1  UNL1       -0.3490
      4 C         140.5053  140.8278  166.2109 C.3     1  UNL1        0.1538
      5 C         141.7398  140.0305  165.9097 C.3     1  UNL1        0.0841
      6 N         142.7057  139.7001  167.0086 N.3     1  UNL1       -0.3199
      7 C         142.0082  139.5638  164.5096 C.3     1  UNL1        0.0368
      8 H         142.3684  140.0931  167.8873 H       1  UNL1        0.1189
      9 H         143.6198  140.0954  166.7880 H       1  UNL1        0.1189
     10 C         143.6006  137.3016  155.6694 C.3     1  UNL1        0.0523
     11 C         142.2490  137.5197  156.2822 C.ar    1  UNL1        0.0640
     12 C         141.0100  137.2665  155.4755 C.ar    1  UNL1        0.0355
     13 C         139.6584  137.4847  156.0883 C.ar    1  UNL1        0.1018
     14 N         139.5458  137.9561  157.5078 N.ar    1  UNL1       -0.2252
     15 C         140.7848  138.2093  158.3145 C.ar    1  UNL1        0.1619
     16 C         140.9856  138.6747  159.7263 C.ar    1  UNL1        0.0463
     17 C         142.4613  138.7441  159.9860 C.ar    1  UNL1        0.0954
     18 N         143.1725  138.3216  158.7348 N.ar    1  UNL1       -0.1673
     19 N         142.1364  137.9911  157.7017 N.ar    1  UNL1       -0.2167
     20 C         142.6621  139.2094  161.3978 C.3     1  UNL1        0.1205
     21 N         141.3105  139.4276  162.0107 N.3     1  UNL1       -0.2627
     22 C         140.2743  139.0971  160.9776 C.3     1  UNL1        0.1038
     23 C         140.2369  141.2945  167.6108 C.ar    1  UNL1        0.0355
     24 C         140.7651  142.6198  168.0738 C.ar    1  UNL1        0.0300
     25 C         140.4966  143.0865  169.4739 C.ar    1  UNL1        0.1400
     26 F         141.0248  144.4119  169.9369 F       1  UNL1       -0.2042
     27 C         139.6999  142.2278  170.4109 C.ar    1  UNL1        0.0319
     28 C         139.1717  140.9025  169.9479 C.ar    1  UNL1        0.0317
     29 C         139.4402  140.4358  168.5478 C.ar    1  UNL1        0.1386
     30 F         138.9119  139.1105  168.0848 F       1  UNL1       -0.2044
@<TRIPOS>BOND
     1    10    11    1
     2    11    12   ar
     3    12    13   ar
     4    13    14   ar
     5    14    15   ar
     6    15    16   ar
     7    16    17   ar
     8    17    18   ar
     9    18    19   ar
    10    17    20    1
    11    20    21    1
    12     1    21    1
    13     1     2    1
    14     2     3    1
    15     3     4    1
    16     4    23    1
    17    23    24   ar
    18    24    25   ar
    19    25    26    1
    20    25    27   ar
    21    27    28   ar
    22    28    29   ar
    23    29    30    1
    24     4     5    1
    25     5     6    1
    26     5     7    1
    27    21    22    1
    28    19    11   ar
    29     7     1    1
    30    19    15   ar
    31    29    23   ar
    32    22    16    1
    33     6     8    1
    34     6     9    1
@<TRIPOS>MOLECULE
*****
 30 34 0 0 0
SMALL
GASTEIGER

@<TRIPOS>ATOM
      1 C         140.8507  138.8624  162.6226 C.3     1  UNL1        0.0892
      2 C         140.6536  137.7265  163.5822 C.3     1  UNL1        0.1584
      3 O         140.6738  137.9812  165.0603 O.3     1  UNL1       -0.3490
      4 C         140.8911  139.3719  165.5788 C.3     1  UNL1        0.1538
      5 C         141.0882  140.5079  164.6191 C.3     1  UNL1        0.0841
      6 N         141.3054  141.8984  165.1376 N.3     1  UNL1       -0.3199
      7 C         141.0680  140.2531  163.1411 C.3     1  UNL1        0.0368
      8 H         141.2892  141.8874  166.1574 H       1  UNL1        0.1189
      9 H         140.5654  142.5095  164.7924 H       1  UNL1        0.1189
     10 C         139.6821  137.4906  154.2590 C.3     1  UNL1        0.0523
     11 C         140.9048  137.5596  155.1252 C.ar    1  UNL1        0.0640
     12 C         142.2639  137.3647  154.5211 C.ar    1  UNL1        0.0355
     13 C         143.4866  137.4337  155.3873 C.ar    1  UNL1        0.1018
     14 N         143.3502  137.6975  156.8576 N.ar    1  UNL1       -0.2252
     15 C         141.9912  137.8924  157.4617 C.ar    1  UNL1        0.1619
     16 C         141.5478  138.1656  158.8684 C.ar    1  UNL1        0.0463
     17 C         140.0512  138.2654  158.8716 C.ar    1  UNL1        0.0954
     18 N         139.5695  138.0540  157.4669 N.ar    1  UNL1       -0.1673
     19 N         140.7685  137.8234  156.5955 N.ar    1  UNL1       -0.2167
     20 C         139.6078  138.5386  160.2784 C.3     1  UNL1        0.1205
     21 N         140.8305  138.6076  161.1445 N.3     1  UNL1       -0.2627
     22 C         142.0295  138.3770  160.2732 C.3     1  UNL1        0.1038
     23 C         140.9113  139.6266  167.0568 C.ar    1  UNL1        0.0355
     24 C         139.6464  140.0013  167.7707 C.ar    1  UNL1        0.0300
     25 C         139.6666  140.2560  169.2488 C.ar    1  UNL1        0.1400
     26 F         138.4017  140.6306  169.9626 F       1  UNL1       -0.2042
     27 C         140.9518  140.1360  170.0130 C.ar    1  UNL1        0.0319
     28 C         142.2167  139.7614  169.2991 C.ar    1  UNL1        0.0317
     29 C         142.1964  139.5067  167.8210 C.ar    1  UNL1        0.1386
     30 F         143.4613  139.1320  167.1071 F       1  UNL1       -0.2044
@<TRIPOS>BOND
     1    10    11    1
     2    11    12   ar
     3    12    13   ar
     4    13    14   ar
     5    14    15   ar
     6    15    16   ar
     7    16    17   ar
     8    17    18   ar
     9    18    19   ar
    10    17    20    1
    11    20    21    1
    12     1    21    1
    13     1     2    1
    14     2     3    1
    15     3     4    1
    16     4    23    1
    17    23    24   ar
    18    24    25   ar
    19    25    26    1
    20    25    27   ar
    21    27    28   ar
    22    28    29   ar
    23    29    30    1
    24     4     5    1
    25     5     6    1
    26     5     7    1
    27    21    22    1
    28    19    11   ar
    29     7     1    1
    30    19    15   ar
    31    29    23   ar
    32    22    16    1
    33     6     8    1
    34     6     9    1
@<TRIPOS>MOLECULE
*****
 30 34 0 0 0
SMALL
GASTEIGER

@<TRIPOS>ATOM
      1 C         140.8000  142.9707  163.9350 C.3     1  UNL1        0.0892
      2 C         139.5662  142.5017  164.6475 C.3     1  UNL1        0.1584
      3 O         139.6510  142.0484  166.0749 O.3     1  UNL1       -0.3490
      4 C         140.9697  142.0640  166.7897 C.3     1  UNL1        0.1538
      5 C         142.2035  142.5330  166.0771 C.3     1  UNL1        0.0841
      6 N         143.5221  142.5486  166.7919 N.3     1  UNL1       -0.3199
      7 C         142.1187  142.9864  164.6498 C.3     1  UNL1        0.0368
      8 H         143.3956  142.2108  167.7459 H       1  UNL1        0.1189
      9 H         143.8856  143.5014  166.8139 H       1  UNL1        0.1189
     10 C         141.0772  146.2502  156.0379 C.3     1  UNL1        0.0523
     11 C         140.2569  145.1641  156.6683 C.ar    1  UNL1        0.0640
     12 C         139.2398  144.4228  155.8522 C.ar    1  UNL1        0.0355
     13 C         138.4195  143.3367  156.4826 C.ar    1  UNL1        0.1018
     14 N         138.6164  142.9918  157.9291 N.ar    1  UNL1       -0.2252
     15 C         139.6335  143.7330  158.7451 C.ar    1  UNL1        0.1619
     16 C         140.0466  143.6150  160.1823 C.ar    1  UNL1        0.0463
     17 C         141.1222  144.6282  160.4401 C.ar    1  UNL1        0.0954
     18 N         141.3738  145.3724  159.1623 N.ar    1  UNL1       -0.1673
     19 N         140.4538  144.8192  158.1147 N.ar    1  UNL1       -0.2167
     20 C         141.5354  144.5102  161.8773 C.3     1  UNL1        0.1205
     21 N         140.7151  143.4240  162.5077 N.3     1  UNL1       -0.2627
     22 C         139.7950  142.8707  161.4601 C.3     1  UNL1        0.1038
     23 C         141.0545  141.6107  168.2170 C.ar    1  UNL1        0.0355
     24 C         141.5628  140.2366  168.5386 C.ar    1  UNL1        0.0300
     25 C         141.6475  139.7833  169.9659 C.ar    1  UNL1        0.1400
     26 F         142.1558  138.4092  170.2875 F       1  UNL1       -0.2042
     27 C         141.2240  140.7041  171.0717 C.ar    1  UNL1        0.0319
     28 C         140.7157  142.0782  170.7501 C.ar    1  UNL1        0.0317
     29 C         140.6309  142.5315  169.3228 C.ar    1  UNL1        0.1386
     30 F         140.1227  143.9056  169.0012 F       1  UNL1       -0.2044
@<TRIPOS>BOND
     1    10    11    1
     2    11    12   ar
     3    12    13   ar
     4    13    14   ar
     5    14    15   ar
     6    15    16   ar
     7    16    17   ar
     8    17    18   ar
     9    18    19   ar
    10    17    20    1
    11    20    21    1
    12     1    21    1
    13     1     2    1
    14     2     3    1
    15     3     4    1
    16     4    23    1
    17    23    24   ar
    18    24    25   ar
    19    25    26    1
    20    25    27   ar
    21    27    28   ar
    22    28    29   ar
    23    29    30    1
    24     4     5    1
    25     5     6    1
    26     5     7    1
    27    21    22    1
    28    19    11   ar
    29     7     1    1
    30    19    15   ar
    31    29    23   ar
    32    22    16    1
    33     6     8    1
    34     6     9    1
@<TRIPOS>MOLECULE
*****
 30 34 0 0 0
SMALL
GASTEIGER

@<TRIPOS>ATOM
      1 C         142.1828  139.8363  163.7538 C.3     1  UNL1        0.0892
      2 C         141.3487  140.9929  164.2190 C.3     1  UNL1        0.1584
      3 O         141.2482  141.3042  165.6830 O.3     1  UNL1       -0.3490
      4 C         141.9818  140.4589  166.6816 C.3     1  UNL1        0.1538
      5 C         142.8160  139.3023  166.2163 C.3     1  UNL1        0.0841
      6 N         143.5495  138.4570  167.2149 N.3     1  UNL1       -0.3199
      7 C         142.9165  138.9910  164.7524 C.3     1  UNL1        0.0368
      8 H         143.3698  138.8088  168.1553 H       1  UNL1        0.1189
      9 H         144.5505  138.4957  167.0230 H       1  UNL1        0.1189
     10 C         143.7795  138.3184  155.4868 C.3     1  UNL1        0.0523
     11 C         142.5399  138.2213  156.3258 C.ar    1  UNL1        0.0640
     12 C         141.2476  137.7786  155.7061 C.ar    1  UNL1        0.0355
     13 C         140.0080  137.6815  156.5451 C.ar    1  UNL1        0.1018
     14 N         140.0606  138.0273  158.0037 N.ar    1  UNL1       -0.2252
     15 C         141.3528  138.4700  158.6234 C.ar    1  UNL1        0.1619
     16 C         141.7083  138.8730  160.0238 C.ar    1  UNL1        0.0463
     17 C         143.1675  139.2191  160.0504 C.ar    1  UNL1        0.0954
     18 N         143.7140  139.0300  158.6664 N.ar    1  UNL1       -0.1673
     19 N         142.5925  138.5671  157.7844 N.ar    1  UNL1       -0.2167
     20 C         143.5230  139.6221  161.4509 C.3     1  UNL1        0.1205
     21 N         142.2833  139.5251  162.2899 N.3     1  UNL1       -0.2627
     22 C         141.1617  139.0621  161.4079 C.3     1  UNL1        0.1038
     23 C         141.8813  140.7702  168.1454 C.ar    1  UNL1        0.0355
     24 C         140.9025  140.0264  169.0049 C.ar    1  UNL1        0.0300
     25 C         140.8021  140.3378  170.4688 C.ar    1  UNL1        0.1400
     26 F         139.8233  139.5939  171.3283 F       1  UNL1       -0.2042
     27 C         141.6803  141.3930  171.0732 C.ar    1  UNL1        0.0319
     28 C         142.6590  142.1368  170.2137 C.ar    1  UNL1        0.0317
     29 C         142.7595  141.8254  168.7498 C.ar    1  UNL1        0.1386
     30 F         143.7383  142.5693  167.8903 F       1  UNL1       -0.2044
@<TRIPOS>BOND
     1    10    11    1
     2    11    12   ar
     3    12    13   ar
     4    13    14   ar
     5    14    15   ar
     6    15    16   ar
     7    16    17   ar
     8    17    18   ar
     9    18    19   ar
    10    17    20    1
    11    20    21    1
    12     1    21    1
    13     1     2    1
    14     2     3    1
    15     3     4    1
    16     4    23    1
    17    23    24   ar
    18    24    25   ar
    19    25    26    1
    20    25    27   ar
    21    27    28   ar
    22    28    29   ar
    23    29    30    1
    24     4     5    1
    25     5     6    1
    26     5     7    1
    27    21    22    1
    28    19    11   ar
    29     7     1    1
    30    19    15   ar
    31    29    23   ar
    32    22    16    1
    33     6     8    1
    34     6     9    1
@<TRIPOS>MOLECULE
*****
 30 34 0 0 0
SMALL
GASTEIGER

@<TRIPOS>ATOM
      1 C         142.9247  141.6420  163.7103 C.3     1  UNL1        0.0892
      2 C         142.3177  142.8905  164.2784 C.3     1  UNL1        0.1584
      3 O         141.8847  142.9278  165.7142 O.3     1  UNL1       -0.3490
      4 C         142.0587  141.7166  166.5817 C.3     1  UNL1        0.1538
      5 C         142.6658  140.4680  166.0135 C.3     1  UNL1        0.0841
      6 N         142.8399  139.2569  166.8811 N.3     1  UNL1       -0.3199
      7 C         143.0988  140.4308  164.5778 C.3     1  UNL1        0.0368
      8 H         142.4944  139.4584  167.8194 H       1  UNL1        0.1189
      9 H         143.8288  139.0118  166.9283 H       1  UNL1        0.1189
     10 C         145.8593  142.3624  155.7062 C.3     1  UNL1        0.0523
     11 C         145.0488  141.3148  156.4102 C.ar    1  UNL1        0.0640
     12 C         144.5969  140.0920  155.6682 C.ar    1  UNL1        0.0355
     13 C         143.7863  139.0445  156.3722 C.ar    1  UNL1        0.1018
     14 N         143.4276  139.2197  157.8180 N.ar    1  UNL1       -0.2252
     15 C         143.8795  140.4425  158.5600 C.ar    1  UNL1        0.1619
     16 C         143.6802  140.8865  159.9788 C.ar    1  UNL1        0.0463
     17 C         144.3675  142.2084  160.1518 C.ar    1  UNL1        0.0954
     18 N         144.9917  142.5815  158.8399 N.ar    1  UNL1       -0.1673
     19 N         144.6900  141.4901  157.8560 N.ar    1  UNL1       -0.2167
     20 C         144.1682  142.6524  161.5707 C.3     1  UNL1        0.1205
     21 N         143.3576  141.6048  162.2746 N.3     1  UNL1       -0.2627
     22 C         143.0560  140.5134  161.2908 C.3     1  UNL1        0.1038
     23 C         141.6258  141.7539  168.0173 C.ar    1  UNL1        0.0355
     24 C         140.2406  141.3191  168.3945 C.ar    1  UNL1        0.0300
     25 C         139.8077  141.3565  169.8302 C.ar    1  UNL1        0.1400
     26 F         138.4226  140.9217  170.2074 F       1  UNL1       -0.2042
     27 C         140.7600  141.8286  170.8887 C.ar    1  UNL1        0.0319
     28 C         142.1452  142.2633  170.5115 C.ar    1  UNL1        0.0317
     29 C         142.5781  142.2260  169.0758 C.ar    1  UNL1        0.1386
     30 F         143.9632  142.6607  168.6986 F       1  UNL1       -0.2044
@<TRIPOS>BOND
     1    10    11    1
     2    11    12   ar
     3    12    13   ar
     4    13    14   ar
     5    14    15   ar
     6    15    16   ar
     7    16    17   ar
     8    17    18   ar
     9    18    19   ar
    10    17    20    1
    11    20    21    1
    12     1    21    1
    13     1     2    1
    14     2     3    1
    15     3     4    1
    16     4    23    1
    17    23    24   ar
    18    24    25   ar
    19    25    26    1
    20    25    27   ar
    21    27    28   ar
    22    28    29   ar
    23    29    30    1
    24     4     5    1
    25     5     6    1
    26     5     7    1
    27    21    22    1
    28    19    11   ar
    29     7     1    1
    30    19    15   ar
    31    29    23   ar
    32    22    16    1
    33     6     8    1
    34     6     9    1
@<TRIPOS>MOLECULE
*****
 30 34 0 0 0
SMALL
GASTEIGER

@<TRIPOS>ATOM
      1 C         142.3174  139.4194  162.9360 C.3     1  UNL1        0.0892
      2 C         142.1463  138.1833  163.7683 C.3     1  UNL1        0.1584
      3 O         141.8423  138.3011  165.2325 O.3     1  UNL1       -0.3490
      4 C         141.7094  139.6550  165.8644 C.3     1  UNL1        0.1538
      5 C         141.8805  140.8912  165.0320 C.3     1  UNL1        0.0841
      6 N         141.7476  142.2450  165.6638 N.3     1  UNL1       -0.3199
      7 C         142.1845  140.7733  163.5678 C.3     1  UNL1        0.0368
      8 H         141.5416  142.1379  166.6571 H       1  UNL1        0.1189
      9 H         140.9899  142.7578  165.2128 H       1  UNL1        0.1189
     10 C         144.7473  139.5307  154.7336 C.3     1  UNL1        0.0523
     11 C         143.7538  138.7060  155.4970 C.ar    1  UNL1        0.0640
     12 C         142.9574  137.6485  154.7918 C.ar    1  UNL1        0.0355
     13 C         141.9639  136.8238  155.5552 C.ar    1  UNL1        0.1018
     14 N         141.7669  137.0565  157.0239 N.ar    1  UNL1       -0.2252
     15 C         142.5633  138.1140  157.7291 C.ar    1  UNL1        0.1619
     16 C         142.5855  138.5676  159.1587 C.ar    1  UNL1        0.0463
     17 C         143.5926  139.6727  159.2789 C.ar    1  UNL1        0.0954
     18 N         144.1929  139.9020  157.9235 N.ar    1  UNL1       -0.1673
     19 N         143.5568  138.9387  156.9657 N.ar    1  UNL1       -0.2167
     20 C         143.6148  140.1263  160.7085 C.3     1  UNL1        0.1205
     21 N         142.6213  139.3015  161.4719 N.3     1  UNL1       -0.2627
     22 C         141.9851  138.3382  160.5141 C.3     1  UNL1        0.1038
     23 C         141.4054  139.7728  167.3285 C.ar    1  UNL1        0.0355
     24 C         142.4981  139.5854  168.3388 C.ar    1  UNL1        0.0300
     25 C         142.1941  139.7032  169.8029 C.ar    1  UNL1        0.1400
     26 F         143.2868  139.5158  170.8133 F       1  UNL1       -0.2042
     27 C         140.7973  140.0084  170.2567 C.ar    1  UNL1        0.0319
     28 C         139.7046  140.1958  169.2464 C.ar    1  UNL1        0.0317
     29 C         140.0086  140.0780  167.7822 C.ar    1  UNL1        0.1386
     30 F         138.9159  140.2654  166.7719 F       1  UNL1       -0.2044
@<TRIPOS>BOND
     1    10    11    1
     2    11    12   ar
     3    12    13   ar
     4    13    14   ar
     5    14    15   ar
     6    15    16   ar
     7    16    17   ar
     8    17    18   ar
     9    18    19   ar
    10    17    20    1
    11    20    21    1
    12     1    21    1
    13     1     2    1
    14     2     3    1
    15     3     4    1
    16     4    23    1
    17    23    24   ar
    18    24    25   ar
    19    25    26    1
    20    25    27   ar
    21    27    28   ar
    22    28    29   ar
    23    29    30    1
    24     4     5    1
    25     5     6    1
    26     5     7    1
    27    21    22    1
    28    19    11   ar
    29     7     1    1
    30    19    15   ar
    31    29    23   ar
    32    22    16    1
    33     6     8    1
    34     6     9    1
@<TRIPOS>MOLECULE
*****
 30 34 0 0 0
SMALL
GASTEIGER

@<TRIPOS>ATOM
      1 C         141.0246  139.4881  163.0483 C.3     1  UNL1        0.0892
      2 C         141.6877  138.7458  164.1704 C.3     1  UNL1        0.1584
      3 O         141.4560  139.1699  165.5905 O.3     1  UNL1       -0.3490
      4 C         140.5612  140.3364  165.8884 C.3     1  UNL1        0.1538
      5 C         139.8981  141.0787  164.7661 C.3     1  UNL1        0.0841
      6 N         139.0034  142.2451  165.0640 N.3     1  UNL1       -0.3199
      7 C         140.1298  140.6546  163.3461 C.3     1  UNL1        0.0368
      8 H         138.9603  142.3917  166.0725 H       1  UNL1        0.1189
      9 H         138.0667  142.0549  164.7078 H       1  UNL1        0.1189
     10 C         143.3768  137.0580  155.1897 C.3     1  UNL1        0.0523
     11 C         142.0450  137.3409  155.8193 C.ar    1  UNL1        0.0640
     12 C         140.7892  137.2062  155.0102 C.ar    1  UNL1        0.0355
     13 C         139.4574  137.4891  155.6398 C.ar    1  UNL1        0.1018
     14 N         139.3815  137.9066  157.0785 N.ar    1  UNL1       -0.2252
     15 C         140.6374  138.0413  157.8876 C.ar    1  UNL1        0.1619
     16 C         140.8738  138.4319  159.3164 C.ar    1  UNL1        0.0463
     17 C         142.3516  138.3904  159.5699 C.ar    1  UNL1        0.0954
     18 N         143.0286  137.9742  158.2977 N.ar    1  UNL1       -0.1673
     19 N         141.9691  137.7584  157.2580 N.ar    1  UNL1       -0.2167
     20 C         142.5880  138.7810  160.9987 C.3     1  UNL1        0.1205
     21 N         141.2562  139.0639  161.6283 N.3     1  UNL1       -0.2627
     22 C         140.1967  138.8481  160.5886 C.3     1  UNL1        0.1038
     23 C         140.3296  140.7605  167.3083 C.ar    1  UNL1        0.0355
     24 C         139.3056  140.0525  168.1450 C.ar    1  UNL1        0.0300
     25 C         139.0741  140.4767  169.5651 C.ar    1  UNL1        0.1400
     26 F         138.0501  139.7686  170.4018 F       1  UNL1       -0.2042
     27 C         139.8665  141.6089  170.1483 C.ar    1  UNL1        0.0319
     28 C         140.8905  142.3169  169.3116 C.ar    1  UNL1        0.0317
     29 C         141.1220  141.8928  167.8916 C.ar    1  UNL1        0.1386
     30 F         142.1460  142.6008  167.0549 F       1  UNL1       -0.2044
@<TRIPOS>BOND
     1    10    11    1
     2    11    12   ar
     3    12    13   ar
     4    13    14   ar
     5    14    15   ar
     6    15    16   ar
     7    16    17   ar
     8    17    18   ar
     9    18    19   ar
    10    17    20    1
    11    20    21    1
    12     1    21    1
    13     1     2    1
    14     2     3    1
    15     3     4    1
    16     4    23    1
    17    23    24   ar
    18    24    25   ar
    19    25    26    1
    20    25    27   ar
    21    27    28   ar
    22    28    29   ar
    23    29    30    1
    24     4     5    1
    25     5     6    1
    26     5     7    1
    27    21    22    1
    28    19    11   ar
    29     7     1    1
    30    19    15   ar
    31    29    23   ar
    32    22    16    1
    33     6     8    1
    34     6     9    1
@<TRIPOS>MOLECULE
*****
 30 34 0 0 0
SMALL
GASTEIGER

@<TRIPOS>ATOM
      1 C         141.5951  143.4782  162.8649 C.3     1  UNL1        0.0892
      2 C         140.6035  143.6518  163.9768 C.3     1  UNL1        0.1584
      3 O         140.8795  143.0598  165.3272 O.3     1  UNL1       -0.3490
      4 C         142.1472  142.2942  165.5656 C.3     1  UNL1        0.1538
      5 C         143.1389  142.1206  164.4535 C.3     1  UNL1        0.0841
      6 N         144.4065  141.3550  164.6920 N.3     1  UNL1       -0.3199
      7 C         142.8629  142.7126  163.1032 C.3     1  UNL1        0.0368
      8 H         144.4289  141.0266  165.6574 H       1  UNL1        0.1189
      9 H         145.2078  141.9624  164.5208 H       1  UNL1        0.1189
     10 C         139.2556  147.4124  155.6368 C.3     1  UNL1        0.0523
     11 C         140.3105  146.3943  155.9542 C.ar    1  UNL1        0.0640
     12 C         141.2062  145.8783  154.8673 C.ar    1  UNL1        0.0355
     13 C         142.2610  144.8603  155.1847 C.ar    1  UNL1        0.1018
     14 N         142.4202  144.3581  156.5891 N.ar    1  UNL1       -0.2252
     15 C         141.5245  144.8740  157.6761 C.ar    1  UNL1        0.1619
     16 C         141.4461  144.5670  159.1423 C.ar    1  UNL1        0.0463
     17 C         140.3427  145.3953  159.7309 C.ar    1  UNL1        0.0954
     18 N         139.7393  146.2143  158.6286 N.ar    1  UNL1       -0.1673
     19 N         140.4697  145.8921  157.3586 N.ar    1  UNL1       -0.2167
     20 C         140.2643  145.0883  161.1971 C.3     1  UNL1        0.1205
     21 N         141.3191  144.0702  161.5146 N.3     1  UNL1       -0.2627
     22 C         142.0496  143.7480  160.2446 C.3     1  UNL1        0.1038
     23 C         142.4231  141.7022  166.9158 C.ar    1  UNL1        0.0355
     24 C         143.1471  142.5073  167.9540 C.ar    1  UNL1        0.0300
     25 C         143.4230  141.9152  169.3043 C.ar    1  UNL1        0.1400
     26 F         144.1470  142.7203  170.3424 F       1  UNL1       -0.2042
     27 C         142.9750  140.5181  169.6165 C.ar    1  UNL1        0.0319
     28 C         142.2510  139.7131  168.5783 C.ar    1  UNL1        0.0317
     29 C         141.9751  140.3051  167.2280 C.ar    1  UNL1        0.1386
     30 F         141.2511  139.5001  166.1899 F       1  UNL1       -0.2044
@<TRIPOS>BOND
     1    10    11    1
     2    11    12   ar
     3    12    13   ar
     4    13    14   ar
     5    14    15   ar
     6    15    16   ar
     7    16    17   ar
     8    17    18   ar
     9    18    19   ar
    10    17    20    1
    11    20    21    1
    12     1    21    1
    13     1     2    1
    14     2     3    1
    15     3     4    1
    16     4    23    1
    17    23    24   ar
    18    24    25   ar
    19    25    26    1
    20    25    27   ar
    21    27    28   ar
    22    28    29   ar
    23    29    30    1
    24     4     5    1
    25     5     6    1
    26     5     7    1
    27    21    22    1
    28    19    11   ar
    29     7     1    1
    30    19    15   ar
    31    29    23   ar
    32    22    16    1
    33     6     8    1
    34     6     9    1
