@<TRIPOS>MOLECULE
*****
 23 24 0 0 0
SMALL
GASTEIGER

@<TRIPOS>ATOM
      1 C         140.2637  140.9377  167.9487 C.3     1  UNL1        0.1895
      2 C         139.8017  139.8402  167.0366 C.ar    1  UNL1        0.0172
      3 C         138.4433  139.2321  167.2229 C.ar    1  UNL1       -0.0008
      4 C         137.9813  138.1346  166.3107 C.ar    1  UNL1       -0.0002
      5 C         138.8778  137.6452  165.2122 C.ar    1  UNL1       -0.0000
      6 C         140.2363  138.2534  165.0258 C.ar    1  UNL1       -0.0002
      7 C         140.6983  139.3509  165.9380 C.ar    1  UNL1       -0.0008
      8 C         139.7794  140.9874  169.3676 C.3     1  UNL1        0.0650
      9 N         140.6508  140.5933  171.7832 N.3     1  UNL1       -0.3210
     10 C         140.3842  140.0814  170.3987 C.3     1  UNL1        0.0692
     11 H         141.0603  139.8492  172.3479 H       1  UNL1        0.1189
     12 H         139.7748  140.8991  172.2071 H       1  UNL1        0.1189
     13 O         141.2100  141.9855  167.4422 O.3     1  UNL1       -0.4747
     14 C         140.8190  142.8508  166.2809 C.ar    1  UNL1        0.1388
     15 C         141.7335  142.9776  165.0987 C.ar    1  UNL1        0.0369
     16 C         141.3425  143.8428  163.9375 C.ar    1  UNL1        0.0070
     17 C         140.0371  144.5814  163.9585 C.ar    1  UNL1        0.0716
     18 C         139.1227  144.4547  165.1407 C.ar    1  UNL1        0.0070
     19 C         139.5136  143.5894  166.3019 C.ar    1  UNL1        0.0369
     20 C         139.6462  145.4467  162.7972 C.3     1  UNL1        0.4186
     21 F         139.2552  146.3119  161.6360 F       1  UNL1       -0.1659
     22 F         141.0506  145.9666  162.7118 F       1  UNL1       -0.1659
     23 F         138.2418  144.9267  162.8826 F       1  UNL1       -0.1659
@<TRIPOS>BOND
     1     9    10    1
     2    10     8    1
     3     8     1    1
     4     1    13    1
     5    13    14    1
     6    14    15   ar
     7    15    16   ar
     8    16    17   ar
     9    17    20    1
    10    20    21    1
    11    20    22    1
    12    20    23    1
    13    17    18   ar
    14    18    19   ar
    15     1     2    1
    16     2     3   ar
    17     3     4   ar
    18     4     5   ar
    19     5     6   ar
    20     6     7   ar
    21    19    14   ar
    22     7     2   ar
    23     9    11    1
    24     9    12    1
@<TRIPOS>MOLECULE
*****
 23 24 0 0 0
SMALL
GASTEIGER

@<TRIPOS>ATOM
      1 C         140.3097  140.9447  167.9103 C.3     1  UNL1        0.1895
      2 C         139.8238  139.8416  167.0175 C.ar    1  UNL1        0.0172
      3 C         140.7191  139.2954  165.9451 C.ar    1  UNL1       -0.0008
      4 C         140.2333  138.1922  165.0523 C.ar    1  UNL1       -0.0002
      5 C         138.8522  137.6353  165.2319 C.ar    1  UNL1       -0.0000
      6 C         137.9568  138.1815  166.3043 C.ar    1  UNL1       -0.0002
      7 C         138.4426  139.2847  167.1971 C.ar    1  UNL1       -0.0008
      8 C         139.8409  141.0193  169.3332 C.3     1  UNL1        0.0650
      9 N         140.6594  140.5903  171.7613 N.3     1  UNL1       -0.3210
     10 C         140.4235  140.0985  170.3641 C.3     1  UNL1        0.0692
     11 H         141.0569  139.8381  172.3240 H       1  UNL1        0.1189
     12 H         139.7742  140.8896  172.1704 H       1  UNL1        0.1189
     13 O         141.2642  141.9732  167.3801 O.3     1  UNL1       -0.4747
     14 C         140.8608  142.8493  166.2313 C.ar    1  UNL1        0.1388
     15 C         139.5280  143.5373  166.2447 C.ar    1  UNL1        0.0369
     16 C         139.1247  144.4134  165.0958 C.ar    1  UNL1        0.0070
     17 C         140.0542  144.6013  163.9336 C.ar    1  UNL1        0.0716
     18 C         141.3869  143.9132  163.9202 C.ar    1  UNL1        0.0070
     19 C         141.7903  143.0372  165.0690 C.ar    1  UNL1        0.0369
     20 C         139.6508  145.4774  162.7847 C.3     1  UNL1        0.4186
     21 F         139.2474  146.3534  161.6359 F       1  UNL1       -0.1659
     22 F         141.0617  145.9726  162.6669 F       1  UNL1       -0.1659
     23 F         138.2398  144.9821  162.9025 F       1  UNL1       -0.1659
@<TRIPOS>BOND
     1     9    10    1
     2    10     8    1
     3     8     1    1
     4     1    13    1
     5    13    14    1
     6    14    15   ar
     7    15    16   ar
     8    16    17   ar
     9    17    20    1
    10    20    21    1
    11    20    22    1
    12    20    23    1
    13    17    18   ar
    14    18    19   ar
    15     1     2    1
    16     2     3   ar
    17     3     4   ar
    18     4     5   ar
    19     5     6   ar
    20     6     7   ar
    21    19    14   ar
    22     7     2   ar
    23     9    11    1
    24     9    12    1
@<TRIPOS>MOLECULE
*****
 23 24 0 0 0
SMALL
GASTEIGER

@<TRIPOS>ATOM
      1 C         139.4917  139.9966  168.2014 C.3     1  UNL1        0.1895
      2 C         140.6861  140.5172  167.4584 C.ar    1  UNL1        0.0172
      3 C         141.8154  139.5928  167.1119 C.ar    1  UNL1       -0.0008
      4 C         143.0099  140.1134  166.3689 C.ar    1  UNL1       -0.0002
      5 C         143.0751  141.5585  165.9723 C.ar    1  UNL1       -0.0000
      6 C         141.9458  142.4831  166.3187 C.ar    1  UNL1       -0.0002
      7 C         140.7513  141.9625  167.0618 C.ar    1  UNL1       -0.0008
      8 C         139.3111  140.3235  169.6543 C.3     1  UNL1        0.0650
      9 N         140.6383  140.7940  171.8376 N.3     1  UNL1       -0.3210
     10 C         140.3595  139.9223  170.6492 C.3     1  UNL1        0.0692
     11 H         141.3744  140.3719  172.4037 H       1  UNL1        0.1189
     12 H         139.7905  140.8875  172.3971 H       1  UNL1        0.1189
     13 O         138.4778  139.1491  167.4918 O.3     1  UNL1       -0.4747
     14 C         138.4887  139.0625  165.9943 C.ar    1  UNL1        0.1388
     15 C         138.0727  140.2456  165.1715 C.ar    1  UNL1        0.0369
     16 C         138.0837  140.1590  163.6741 C.ar    1  UNL1        0.0070
     17 C         138.5107  138.8891  162.9994 C.ar    1  UNL1        0.0716
     18 C         138.9267  137.7060  163.8222 C.ar    1  UNL1        0.0070
     19 C         138.9157  137.7926  165.3196 C.ar    1  UNL1        0.0369
     20 C         138.5217  138.8025  161.5019 C.3     1  UNL1        0.4186
     21 F         138.5327  138.7159  160.0045 F       1  UNL1       -0.1659
     22 F         139.4498  137.6265  161.5767 F       1  UNL1       -0.1659
     23 F         137.5936  139.9785  161.4271 F       1  UNL1       -0.1659
@<TRIPOS>BOND
     1     9    10    1
     2    10     8    1
     3     8     1    1
     4     1    13    1
     5    13    14    1
     6    14    15   ar
     7    15    16   ar
     8    16    17   ar
     9    17    20    1
    10    20    21    1
    11    20    22    1
    12    20    23    1
    13    17    18   ar
    14    18    19   ar
    15     1     2    1
    16     2     3   ar
    17     3     4   ar
    18     4     5   ar
    19     5     6   ar
    20     6     7   ar
    21    19    14   ar
    22     7     2   ar
    23     9    11    1
    24     9    12    1
@<TRIPOS>MOLECULE
*****
 23 24 0 0 0
SMALL
GASTEIGER

@<TRIPOS>ATOM
      1 C         140.8428  143.7676  163.7108 C.3     1  UNL1        0.1895
      2 C         142.2552  143.2632  163.7366 C.ar    1  UNL1        0.0172
      3 C         142.8431  142.6166  162.5175 C.ar    1  UNL1       -0.0008
      4 C         144.2555  142.1121  162.5434 C.ar    1  UNL1       -0.0002
      5 C         145.0800  142.2543  163.7883 C.ar    1  UNL1       -0.0000
      6 C         144.4921  142.9010  165.0075 C.ar    1  UNL1       -0.0002
      7 C         143.0797  143.4055  164.9816 C.ar    1  UNL1       -0.0008
      8 C         140.3153  144.4583  162.4881 C.3     1  UNL1        0.0650
      9 N         137.7235  144.4834  162.6661 N.3     1  UNL1       -0.3210
     10 C         139.0252  145.2205  162.5551 C.3     1  UNL1        0.0692
     11 H         136.9552  145.1533  162.6998 H       1  UNL1        0.1189
     12 H         137.7224  143.9217  163.5176 H       1  UNL1        0.1189
     13 O         139.9579  143.5815  164.9075 O.3     1  UNL1       -0.4747
     14 C         139.4809  142.2093  165.2814 C.ar    1  UNL1        0.1388
     15 C         139.9527  141.5724  166.5549 C.ar    1  UNL1        0.0369
     16 C         139.4758  140.2003  166.9288 C.ar    1  UNL1        0.0070
     17 C         138.5270  139.4651  166.0291 C.ar    1  UNL1        0.0716
     18 C         138.0553  140.1019  164.7557 C.ar    1  UNL1        0.0070
     19 C         138.5322  141.4740  164.3818 C.ar    1  UNL1        0.0369
     20 C         138.0501  138.0929  166.4031 C.3     1  UNL1        0.4186
     21 F         137.5732  136.7208  166.7770 F       1  UNL1       -0.1659
     22 F         138.8335  137.5102  165.2644 F       1  UNL1       -0.1659
     23 F         137.2667  138.6756  167.5418 F       1  UNL1       -0.1659
@<TRIPOS>BOND
     1     9    10    1
     2    10     8    1
     3     8     1    1
     4     1    13    1
     5    13    14    1
     6    14    15   ar
     7    15    16   ar
     8    16    17   ar
     9    17    20    1
    10    20    21    1
    11    20    22    1
    12    20    23    1
    13    17    18   ar
    14    18    19   ar
    15     1     2    1
    16     2     3   ar
    17     3     4   ar
    18     4     5   ar
    19     5     6   ar
    20     6     7   ar
    21    19    14   ar
    22     7     2   ar
    23     9    11    1
    24     9    12    1
@<TRIPOS>MOLECULE
*****
 23 24 0 0 0
SMALL
GASTEIGER

@<TRIPOS>ATOM
      1 C         138.5448  139.1509  163.8315 C.3     1  UNL1        0.1895
      2 C         138.2881  140.5846  163.4730 C.ar    1  UNL1        0.0172
      3 C         138.0541  141.5977  164.5541 C.ar    1  UNL1       -0.0008
      4 C         137.7974  143.0315  164.1955 C.ar    1  UNL1       -0.0002
      5 C         137.7749  143.4521  162.7559 C.ar    1  UNL1       -0.0000
      6 C         138.0089  142.4390  161.6748 C.ar    1  UNL1       -0.0002
      7 C         138.2656  141.0052  162.0333 C.ar    1  UNL1       -0.0008
      8 C         138.8764  138.1571  162.7579 C.3     1  UNL1        0.0650
      9 N         141.1150  136.8659  163.0248 N.3     1  UNL1       -0.3210
     10 C         140.3045  137.9361  162.3557 C.3     1  UNL1        0.0692
     11 H         142.0559  136.8559  162.6311 H       1  UNL1        0.1189
     12 H         140.6730  135.9594  162.8726 H       1  UNL1        0.1189
     13 O         138.4698  138.7109  165.2635 O.3     1  UNL1       -0.4747
     14 C         139.5251  139.1443  166.2376 C.ar    1  UNL1        0.1388
     15 C         140.9745  139.0556  165.8617 C.ar    1  UNL1        0.0369
     16 C         142.0297  139.4890  166.8357 C.ar    1  UNL1        0.0070
     17 C         141.6355  140.0109  168.1856 C.ar    1  UNL1        0.0716
     18 C         140.1861  140.0996  168.5614 C.ar    1  UNL1        0.0070
     19 C         139.1309  139.6662  167.5874 C.ar    1  UNL1        0.0369
     20 C         142.6908  140.4443  169.1596 C.3     1  UNL1        0.4186
     21 F         143.7460  140.8777  170.1335 F       1  UNL1       -0.1659
     22 F         142.4329  139.2184  169.9845 F       1  UNL1       -0.1659
     23 F         142.9487  141.6702  168.3347 F       1  UNL1       -0.1659
@<TRIPOS>BOND
     1     9    10    1
     2    10     8    1
     3     8     1    1
     4     1    13    1
     5    13    14    1
     6    14    15   ar
     7    15    16   ar
     8    16    17   ar
     9    17    20    1
    10    20    21    1
    11    20    22    1
    12    20    23    1
    13    17    18   ar
    14    18    19   ar
    15     1     2    1
    16     2     3   ar
    17     3     4   ar
    18     4     5   ar
    19     5     6   ar
    20     6     7   ar
    21    19    14   ar
    22     7     2   ar
    23     9    11    1
    24     9    12    1
@<TRIPOS>MOLECULE
*****
 23 24 0 0 0
SMALL
GASTEIGER

@<TRIPOS>ATOM
      1 C         139.0179  140.5343  163.2224 C.3     1  UNL1        0.1895
      2 C         139.0394  141.9595  163.6895 C.ar    1  UNL1        0.0172
      3 C         137.7823  142.6013  164.1973 C.ar    1  UNL1       -0.0008
      4 C         137.8038  144.0266  164.6644 C.ar    1  UNL1       -0.0002
      5 C         139.0822  144.8101  164.6237 C.ar    1  UNL1       -0.0000
      6 C         140.3393  144.1683  164.1158 C.ar    1  UNL1       -0.0002
      7 C         140.3179  142.7430  163.6487 C.ar    1  UNL1       -0.0008
      8 C         138.3234  140.1749  161.9423 C.3     1  UNL1        0.0650
      9 N         138.4277  137.6081  162.3301 N.3     1  UNL1       -0.3210
     10 C         138.4307  138.7819  161.3963 C.3     1  UNL1        0.0692
     11 H         138.5076  136.7453  161.7919 H       1  UNL1        0.1189
     12 H         137.5569  137.5983  162.8611 H       1  UNL1        0.1189
     13 O         139.6910  139.4684  164.0353 O.3     1  UNL1       -0.4747
     14 C         139.8282  139.6320  165.5201 C.ar    1  UNL1        0.1388
     15 C         141.1664  139.9484  166.1193 C.ar    1  UNL1        0.0369
     16 C         141.3036  140.1120  167.6040 C.ar    1  UNL1        0.0070
     17 C         140.1026  139.9591  168.4895 C.ar    1  UNL1        0.0716
     18 C         138.7644  139.6427  167.8903 C.ar    1  UNL1        0.0070
     19 C         138.6272  139.4791  166.4056 C.ar    1  UNL1        0.0369
     20 C         140.2398  140.1227  169.9743 C.3     1  UNL1        0.4186
     21 F         140.3770  140.2863  171.4590 F       1  UNL1       -0.1659
     22 F         141.4003  139.1724  169.9718 F       1  UNL1       -0.1659
     23 F         139.0793  141.0730  169.9768 F       1  UNL1       -0.1659
@<TRIPOS>BOND
     1     9    10    1
     2    10     8    1
     3     8     1    1
     4     1    13    1
     5    13    14    1
     6    14    15   ar
     7    15    16   ar
     8    16    17   ar
     9    17    20    1
    10    20    21    1
    11    20    22    1
    12    20    23    1
    13    17    18   ar
    14    18    19   ar
    15     1     2    1
    16     2     3   ar
    17     3     4   ar
    18     4     5   ar
    19     5     6   ar
    20     6     7   ar
    21    19    14   ar
    22     7     2   ar
    23     9    11    1
    24     9    12    1
@<TRIPOS>MOLECULE
*****
 23 24 0 0 0
SMALL
GASTEIGER

@<TRIPOS>ATOM
      1 C         142.2241  141.5519  168.1835 C.3     1  UNL1        0.1895
      2 C         142.8478  140.6965  167.1208 C.ar    1  UNL1        0.0172
      3 C         142.9411  139.2118  167.3121 C.ar    1  UNL1       -0.0008
      4 C         143.5648  138.3564  166.2494 C.ar    1  UNL1       -0.0002
      5 C         144.0953  138.9858  164.9955 C.ar    1  UNL1       -0.0000
      6 C         144.0020  140.4706  164.8042 C.ar    1  UNL1       -0.0002
      7 C         143.3783  141.3260  165.8669 C.ar    1  UNL1       -0.0008
      8 C         143.0674  142.0987  169.2971 C.3     1  UNL1        0.0650
      9 N         142.1096  142.2384  171.7080 N.3     1  UNL1       -0.3210
     10 C         142.4316  142.8945  170.3981 C.3     1  UNL1        0.0692
     11 H         141.6851  142.9217  172.3352 H       1  UNL1        0.1189
     12 H         142.9667  141.8782  172.1276 H       1  UNL1        0.1189
     13 O         140.7571  141.8606  168.1327 O.3     1  UNL1       -0.4747
     14 C         139.9804  141.6067  166.8747 C.ar    1  UNL1        0.1388
     15 C         139.8594  142.6837  165.8377 C.ar    1  UNL1        0.0369
     16 C         139.0827  142.4297  164.5799 C.ar    1  UNL1        0.0070
     17 C         138.4270  141.0988  164.3591 C.ar    1  UNL1        0.0716
     18 C         138.5480  140.0219  165.3961 C.ar    1  UNL1        0.0070
     19 C         139.3247  140.2758  166.6539 C.ar    1  UNL1        0.0369
     20 C         137.6502  140.8449  163.1011 C.3     1  UNL1        0.4186
     21 F         136.8735  140.5911  161.8433 F       1  UNL1       -0.1659
     22 F         137.9999  139.3884  163.1791 F       1  UNL1       -0.1659
     23 F         137.3005  142.3015  163.0231 F       1  UNL1       -0.1659
@<TRIPOS>BOND
     1     9    10    1
     2    10     8    1
     3     8     1    1
     4     1    13    1
     5    13    14    1
     6    14    15   ar
     7    15    16   ar
     8    16    17   ar
     9    17    20    1
    10    20    21    1
    11    20    22    1
    12    20    23    1
    13    17    18   ar
    14    18    19   ar
    15     1     2    1
    16     2     3   ar
    17     3     4   ar
    18     4     5   ar
    19     5     6   ar
    20     6     7   ar
    21    19    14   ar
    22     7     2   ar
    23     9    11    1
    24     9    12    1
@<TRIPOS>MOLECULE
*****
 23 24 0 0 0
SMALL
GASTEIGER

@<TRIPOS>ATOM
      1 C         141.3788  142.9195  163.4458 C.3     1  UNL1        0.1895
      2 C         142.7474  142.3135  163.5443 C.ar    1  UNL1        0.0172
      3 C         143.8434  143.0482  164.2576 C.ar    1  UNL1       -0.0008
      4 C         145.2120  142.4422  164.3561 C.ar    1  UNL1       -0.0002
      5 C         145.4846  141.1014  163.7413 C.ar    1  UNL1       -0.0000
      6 C         144.3885  140.3666  163.0280 C.ar    1  UNL1       -0.0002
      7 C         143.0200  140.9726  162.9294 C.ar    1  UNL1       -0.0008
      8 C         140.8994  143.4810  162.1400 C.3     1  UNL1        0.0650
      9 N         141.0515  145.9612  162.8985 N.3     1  UNL1       -0.3210
     10 C         140.4011  144.8940  162.0690 C.3     1  UNL1        0.0692
     11 H         140.5894  146.8541  162.7269 H       1  UNL1        0.1189
     12 H         142.0371  146.0344  162.6462 H       1  UNL1        0.1189
     13 O         140.4896  142.9640  164.6530 O.3     1  UNL1       -0.4747
     14 C         139.8445  141.7067  165.1561 C.ar    1  UNL1        0.1388
     15 C         139.9901  141.3135  166.5963 C.ar    1  UNL1        0.0369
     16 C         139.3450  140.0562  167.0993 C.ar    1  UNL1        0.0070
     17 C         138.5543  139.1922  166.1622 C.ar    1  UNL1        0.0716
     18 C         138.4086  139.5854  164.7220 C.ar    1  UNL1        0.0070
     19 C         139.0538  140.8427  164.2190 C.ar    1  UNL1        0.0369
     20 C         137.9091  137.9349  166.6653 C.3     1  UNL1        0.4186
     21 F         137.2640  136.6777  167.1684 F       1  UNL1       -0.1659
     22 F         138.5257  137.1660  165.5346 F       1  UNL1       -0.1659
     23 F         137.2926  138.7038  167.7961 F       1  UNL1       -0.1659
@<TRIPOS>BOND
     1     9    10    1
     2    10     8    1
     3     8     1    1
     4     1    13    1
     5    13    14    1
     6    14    15   ar
     7    15    16   ar
     8    16    17   ar
     9    17    20    1
    10    20    21    1
    11    20    22    1
    12    20    23    1
    13    17    18   ar
    14    18    19   ar
    15     1     2    1
    16     2     3   ar
    17     3     4   ar
    18     4     5   ar
    19     5     6   ar
    20     6     7   ar
    21    19    14   ar
    22     7     2   ar
    23     9    11    1
    24     9    12    1
@<TRIPOS>MOLECULE
*****
 23 24 0 0 0
SMALL
GASTEIGER

@<TRIPOS>ATOM
      1 C         141.1938  140.0465  167.8259 C.3     1  UNL1        0.1895
      2 C         142.2374  140.0708  166.7487 C.ar    1  UNL1        0.0172
      3 C         142.9322  138.8030  166.3489 C.ar    1  UNL1       -0.0008
      4 C         143.9758  138.8273  165.2717 C.ar    1  UNL1       -0.0002
      5 C         144.3246  140.1194  164.5944 C.ar    1  UNL1       -0.0000
      6 C         143.6297  141.3873  164.9942 C.ar    1  UNL1       -0.0002
      7 C         142.5861  141.3630  166.0714 C.ar    1  UNL1       -0.0008
      8 C         141.5200  140.5579  169.1979 C.3     1  UNL1        0.0650
      9 N         142.7649  138.5117  170.2044 N.3     1  UNL1       -0.3210
     10 C         142.6839  139.9883  169.9535 C.3     1  UNL1        0.0692
     11 H         143.6149  138.3020  170.7278 H       1  UNL1        0.1189
     12 H         142.7832  138.0159  169.3132 H       1  UNL1        0.1189
     13 O         139.8241  139.5108  167.5312 O.3     1  UNL1       -0.4747
     14 C         139.3174  139.4828  166.1196 C.ar    1  UNL1        0.1388
     15 C         139.3671  138.2085  165.3301 C.ar    1  UNL1        0.0369
     16 C         138.8604  138.1805  163.9185 C.ar    1  UNL1        0.0070
     17 C         138.3040  139.4270  163.2966 C.ar    1  UNL1        0.0716
     18 C         138.2543  140.7013  164.0861 C.ar    1  UNL1        0.0070
     19 C         138.7610  140.7293  165.4976 C.ar    1  UNL1        0.0369
     20 C         137.7973  139.3990  161.8849 C.3     1  UNL1        0.4186
     21 F         137.2907  139.3710  160.4734 F       1  UNL1       -0.1659
     22 F         138.0283  137.9178  161.8314 F       1  UNL1       -0.1659
     23 F         137.5664  140.8801  161.9385 F       1  UNL1       -0.1659
@<TRIPOS>BOND
     1     9    10    1
     2    10     8    1
     3     8     1    1
     4     1    13    1
     5    13    14    1
     6    14    15   ar
     7    15    16   ar
     8    16    17   ar
     9    17    20    1
    10    20    21    1
    11    20    22    1
    12    20    23    1
    13    17    18   ar
    14    18    19   ar
    15     1     2    1
    16     2     3   ar
    17     3     4   ar
    18     4     5   ar
    19     5     6   ar
    20     6     7   ar
    21    19    14   ar
    22     7     2   ar
    23     9    11    1
    24     9    12    1
