@<TRIPOS>MOLECULE
*****
 26 29 0 0 0
SMALL
GASTEIGER

@<TRIPOS>ATOM
      1 C         140.4026  141.4538  165.2927 C.3     1  UNL1        0.0991
      2 C         138.4715  137.4093  165.6960 C.ar    1  UNL1       -0.0000
      3 C         139.5166  137.6399  164.6451 C.ar    1  UNL1       -0.0003
      4 C         140.1603  138.9881  164.5106 C.ar    1  UNL1       -0.0029
      5 C         139.7589  140.1056  165.4271 C.ar    1  UNL1       -0.0061
      6 C         138.7138  139.8750  166.4780 C.ar    1  UNL1       -0.0029
      7 C         138.0701  138.5268  166.6125 C.ar    1  UNL1       -0.0003
      8 N         139.7341  142.5270  164.4857 N.3     1  UNL1       -0.2690
      9 C         138.5008  142.2107  163.6926 C.3     1  UNL1        0.0724
     10 C         137.8322  143.2840  162.8857 C.3     1  UNL1        0.0174
     11 C         138.3970  144.6735  162.8718 C.3     1  UNL1        0.0029
     12 C         139.6302  144.9898  163.6649 C.3     1  UNL1        0.0174
     13 C         140.2988  143.9166  164.4718 C.3     1  UNL1        0.0724
     14 C         141.7149  141.7287  165.9652 C.3     1  UNL1        0.0991
     15 C         141.7432  142.2167  167.3833 C.ar    1  UNL1       -0.0061
     16 C         140.5133  142.8214  167.9931 C.ar    1  UNL1       -0.0029
     17 C         140.5416  143.3094  169.4112 C.ar    1  UNL1       -0.0003
     18 C         141.7998  143.1926  170.2195 C.ar    1  UNL1       -0.0000
     19 C         143.0296  142.5879  169.6098 C.ar    1  UNL1       -0.0003
     20 C         143.0013  142.1000  168.1916 C.ar    1  UNL1       -0.0029
     21 N         142.9989  141.5157  165.2195 N.3     1  UNL1       -0.2690
     22 C         143.7327  142.6883  164.6394 C.3     1  UNL1        0.0724
     23 C         145.0167  142.4754  163.8938 C.3     1  UNL1        0.0174
     24 C         145.5670  141.0898  163.7283 C.3     1  UNL1        0.0029
     25 C         144.8332  139.9172  164.3084 C.3     1  UNL1        0.0174
     26 C         143.5492  140.1302  165.0540 C.3     1  UNL1        0.0724
@<TRIPOS>BOND
     1     2     3   ar
     2     3     4   ar
     3     4     5   ar
     4     5     1    1
     5     1    14    1
     6    14    15    1
     7    15    16   ar
     8    16    17   ar
     9    17    18   ar
    10    18    19   ar
    11    19    20   ar
    12    14    21    1
    13    21    22    1
    14    22    23    1
    15    23    24    1
    16    24    25    1
    17    25    26    1
    18     1     8    1
    19     8     9    1
    20     9    10    1
    21    10    11    1
    22    11    12    1
    23    12    13    1
    24     5     6   ar
    25     6     7   ar
    26     7     2   ar
    27    20    15   ar
    28    26    21    1
    29    13     8    1
@<TRIPOS>MOLECULE
*****
 26 29 0 0 0
SMALL
GASTEIGER

@<TRIPOS>ATOM
      1 C         141.7111  141.7142  165.9788 C.3     1  UNL1        0.0991
      2 C         141.8064  143.1993  170.2256 C.ar    1  UNL1       -0.0000
      3 C         143.0333  142.5871  169.6174 C.ar    1  UNL1       -0.0003
      4 C         143.0015  142.0920  168.2018 C.ar    1  UNL1       -0.0029
      5 C         141.7428  142.2092  167.3944 C.ar    1  UNL1       -0.0061
      6 C         140.5160  142.8214  168.0026 C.ar    1  UNL1       -0.0029
      7 C         140.5478  143.3165  169.4182 C.ar    1  UNL1       -0.0003
      8 N         142.9934  141.4895  165.2338 N.3     1  UNL1       -0.2690
      9 C         143.7368  142.6551  164.6517 C.3     1  UNL1        0.0724
     10 C         145.0192  142.4303  163.9068 C.3     1  UNL1        0.0174
     11 C         145.5582  141.0400  163.7439 C.3     1  UNL1        0.0029
     12 C         144.8149  139.8745  164.3260 C.3     1  UNL1        0.0174
     13 C         143.5325  140.0992  165.0709 C.3     1  UNL1        0.0724
     14 C         140.3969  141.4439  165.3081 C.3     1  UNL1        0.0991
     15 C         139.7486  140.0980  165.4435 C.ar    1  UNL1       -0.0061
     16 C         140.1357  138.9826  164.5182 C.ar    1  UNL1       -0.0029
     17 C         139.4873  137.6367  164.6536 C.ar    1  UNL1       -0.0003
     18 C         138.4519  137.4063  165.7143 C.ar    1  UNL1       -0.0000
     19 C         138.0649  138.5217  166.6395 C.ar    1  UNL1       -0.0003
     20 C         138.7132  139.8676  166.5041 C.ar    1  UNL1       -0.0029
     21 N         139.7310  142.5195  164.5020 N.3     1  UNL1       -0.2690
     22 C         138.4825  142.2131  163.7291 C.3     1  UNL1        0.0724
     23 C         137.8165  143.2886  162.9230 C.3     1  UNL1        0.0174
     24 C         138.3991  144.6705  162.8897 C.3     1  UNL1        0.0029
     25 C         139.6476  144.9768  163.6627 C.3     1  UNL1        0.0174
     26 C         140.3136  143.9013  164.4688 C.3     1  UNL1        0.0724
@<TRIPOS>BOND
     1     2     3   ar
     2     3     4   ar
     3     4     5   ar
     4     5     1    1
     5     1    14    1
     6    14    15    1
     7    15    16   ar
     8    16    17   ar
     9    17    18   ar
    10    18    19   ar
    11    19    20   ar
    12    14    21    1
    13    21    22    1
    14    22    23    1
    15    23    24    1
    16    24    25    1
    17    25    26    1
    18     1     8    1
    19     8     9    1
    20     9    10    1
    21    10    11    1
    22    11    12    1
    23    12    13    1
    24     5     6   ar
    25     6     7   ar
    26     7     2   ar
    27    20    15   ar
    28    26    21    1
    29    13     8    1
@<TRIPOS>MOLECULE
*****
 26 29 0 0 0
SMALL
GASTEIGER

@<TRIPOS>ATOM
      1 C         141.7107  141.7136  165.9799 C.3     1  UNL1        0.0991
      2 C         141.8098  143.1974  170.2271 C.ar    1  UNL1       -0.0000
      3 C         140.5512  143.3174  169.4199 C.ar    1  UNL1       -0.0003
      4 C         140.5182  142.8228  168.0041 C.ar    1  UNL1       -0.0029
      5 C         141.7437  142.2082  167.3956 C.ar    1  UNL1       -0.0061
      6 C         143.0023  142.0882  168.2028 C.ar    1  UNL1       -0.0029
      7 C         143.0353  142.5828  169.6186 C.ar    1  UNL1       -0.0003
      8 N         142.9924  141.4892  165.2338 N.3     1  UNL1       -0.2690
      9 C         143.5285  140.0984  165.0651 C.3     1  UNL1        0.0724
     10 C         144.8103  139.8741  164.3189 C.3     1  UNL1        0.0174
     11 C         145.5560  141.0404  163.7414 C.3     1  UNL1        0.0029
     12 C         145.0199  142.4312  163.9100 C.3     1  UNL1        0.0174
     13 C         143.7382  142.6556  164.6562 C.3     1  UNL1        0.0724
     14 C         140.3960  141.4434  165.3103 C.3     1  UNL1        0.0991
     15 C         139.7484  140.0971  165.4450 C.ar    1  UNL1       -0.0061
     16 C         138.7185  139.8634  166.5103 C.ar    1  UNL1       -0.0029
     17 C         138.0709  138.5172  166.6450 C.ar    1  UNL1       -0.0003
     18 C         138.4532  137.4045  165.7144 C.ar    1  UNL1       -0.0000
     19 C         139.4831  137.6382  164.6491 C.ar    1  UNL1       -0.0003
     20 C         140.1307  138.9845  164.5145 C.ar    1  UNL1       -0.0029
     21 N         139.7287  142.5195  164.5060 N.3     1  UNL1       -0.2690
     22 C         140.3128  143.9007  164.4707 C.3     1  UNL1        0.0724
     23 C         139.6456  144.9768  163.6664 C.3     1  UNL1        0.0174
     24 C         138.3943  144.6717  162.8974 C.3     1  UNL1        0.0029
     25 C         137.8102  143.2906  162.9328 C.3     1  UNL1        0.0174
     26 C         138.4775  142.2144  163.7371 C.3     1  UNL1        0.0724
@<TRIPOS>BOND
     1     2     3   ar
     2     3     4   ar
     3     4     5   ar
     4     5     1    1
     5     1    14    1
     6    14    15    1
     7    15    16   ar
     8    16    17   ar
     9    17    18   ar
    10    18    19   ar
    11    19    20   ar
    12    14    21    1
    13    21    22    1
    14    22    23    1
    15    23    24    1
    16    24    25    1
    17    25    26    1
    18     1     8    1
    19     8     9    1
    20     9    10    1
    21    10    11    1
    22    11    12    1
    23    12    13    1
    24     5     6   ar
    25     6     7   ar
    26     7     2   ar
    27    20    15   ar
    28    26    21    1
    29    13     8    1
@<TRIPOS>MOLECULE
*****
 26 29 0 0 0
SMALL
GASTEIGER

@<TRIPOS>ATOM
      1 C         140.4024  141.4489  165.2971 C.3     1  UNL1        0.0991
      2 C         138.4654  137.4062  165.6899 C.ar    1  UNL1       -0.0000
      3 C         138.0826  138.5152  166.6245 C.ar    1  UNL1       -0.0003
      4 C         138.7283  139.8628  166.4935 C.ar    1  UNL1       -0.0029
      5 C         139.7567  140.1013  165.4280 C.ar    1  UNL1       -0.0061
      6 C         140.1394  138.9923  164.4934 C.ar    1  UNL1       -0.0029
      7 C         139.4938  137.6447  164.6244 C.ar    1  UNL1       -0.0003
      8 N         139.7364  142.5245  164.4912 N.3     1  UNL1       -0.2690
      9 C         140.3166  143.9074  164.4615 C.3     1  UNL1        0.0724
     10 C         139.6506  144.9831  163.6556 C.3     1  UNL1        0.0174
     11 C         138.4044  144.6758  162.8793 C.3     1  UNL1        0.0029
     12 C         137.8242  143.2928  162.9090 C.3     1  UNL1        0.0174
     13 C         138.4902  142.2172  163.7149 C.3     1  UNL1        0.0724
     14 C         141.7140  141.7209  165.9720 C.3     1  UNL1        0.0991
     15 C         141.7407  142.2134  167.3886 C.ar    1  UNL1       -0.0061
     16 C         142.9958  142.0928  168.2011 C.ar    1  UNL1       -0.0029
     17 C         143.0225  142.5853  169.6177 C.ar    1  UNL1       -0.0003
     18 C         141.7939  143.1984  170.2218 C.ar    1  UNL1       -0.0000
     19 C         140.5388  143.3190  169.4093 C.ar    1  UNL1       -0.0003
     20 C         140.5122  142.8265  167.9927 C.ar    1  UNL1       -0.0029
     21 N         142.9991  141.5003  165.2304 N.3     1  UNL1       -0.2690
     22 C         143.7461  142.6694  164.6600 C.3     1  UNL1        0.0724
     23 C         145.0311  142.4489  163.9184 C.3     1  UNL1        0.0174
     24 C         145.5692  141.0592  163.7471 C.3     1  UNL1        0.0029
     25 C         144.8223  139.8901  164.3174 C.3     1  UNL1        0.0174
     26 C         143.5372  140.1107  165.0591 C.3     1  UNL1        0.0724
@<TRIPOS>BOND
     1     2     3   ar
     2     3     4   ar
     3     4     5   ar
     4     5     1    1
     5     1    14    1
     6    14    15    1
     7    15    16   ar
     8    16    17   ar
     9    17    18   ar
    10    18    19   ar
    11    19    20   ar
    12    14    21    1
    13    21    22    1
    14    22    23    1
    15    23    24    1
    16    24    25    1
    17    25    26    1
    18     1     8    1
    19     8     9    1
    20     9    10    1
    21    10    11    1
    22    11    12    1
    23    12    13    1
    24     5     6   ar
    25     6     7   ar
    26     7     2   ar
    27    20    15   ar
    28    26    21    1
    29    13     8    1
@<TRIPOS>MOLECULE
*****
 26 29 0 0 0
SMALL
GASTEIGER

@<TRIPOS>ATOM
      1 C         141.7240  141.7264  165.9914 C.3     1  UNL1        0.0991
      2 C         141.8120  143.2067  170.2400 C.ar    1  UNL1       -0.0000
      3 C         143.0388  142.5917  169.6345 C.ar    1  UNL1       -0.0003
      4 C         143.0095  142.0983  168.2183 C.ar    1  UNL1       -0.0029
      5 C         141.7533  142.2198  167.4076 C.ar    1  UNL1       -0.0061
      6 C         140.5265  142.8348  168.0131 C.ar    1  UNL1       -0.0029
      7 C         140.5558  143.3282  169.4293 C.ar    1  UNL1       -0.0003
      8 N         143.0078  141.4984  165.2499 N.3     1  UNL1       -0.2690
      9 C         143.7610  142.6630  164.6786 C.3     1  UNL1        0.0724
     10 C         145.0449  142.4350  163.9371 C.3     1  UNL1        0.0174
     11 C         145.5754  141.0423  163.7668 C.3     1  UNL1        0.0029
     12 C         144.8222  139.8777  164.3381 C.3     1  UNL1        0.0174
     13 C         143.5384  140.1057  165.0796 C.3     1  UNL1        0.0724
     14 C         140.4109  141.4610  165.3166 C.3     1  UNL1        0.0991
     15 C         139.7412  142.5456  164.5260 C.ar    1  UNL1       -0.0061
     16 C         140.3574  143.9115  164.4549 C.ar    1  UNL1       -0.0029
     17 C         139.6877  144.9961  163.6642 C.ar    1  UNL1       -0.0003
     18 C         138.4018  144.7148  162.9447 C.ar    1  UNL1       -0.0000
     19 C         137.7858  143.3491  163.0159 C.ar    1  UNL1       -0.0003
     20 C         138.4555  142.2645  163.8065 C.ar    1  UNL1       -0.0029
     21 N         139.7675  140.1109  165.4325 N.3     1  UNL1       -0.2690
     22 C         140.1392  139.0182  164.4745 C.3     1  UNL1        0.0724
     23 C         139.4959  137.6682  164.5904 C.3     1  UNL1        0.0174
     24 C         138.4806  137.4109  165.6643 C.3     1  UNL1        0.0029
     25 C         138.1089  138.5036  166.6223 C.3     1  UNL1        0.0174
     26 C         138.7523  139.8537  166.5064 C.3     1  UNL1        0.0724
@<TRIPOS>BOND
     1     2     3   ar
     2     3     4   ar
     3     4     5   ar
     4     5     1    1
     5     1    14    1
     6    14    15    1
     7    15    16   ar
     8    16    17   ar
     9    17    18   ar
    10    18    19   ar
    11    19    20   ar
    12    14    21    1
    13    21    22    1
    14    22    23    1
    15    23    24    1
    16    24    25    1
    17    25    26    1
    18     1     8    1
    19     8     9    1
    20     9    10    1
    21    10    11    1
    22    11    12    1
    23    12    13    1
    24     5     6   ar
    25     6     7   ar
    26     7     2   ar
    27    20    15   ar
    28    26    21    1
    29    13     8    1
@<TRIPOS>MOLECULE
*****
 26 29 0 0 0
SMALL
GASTEIGER

@<TRIPOS>ATOM
      1 C         140.4066  141.4726  165.3330 C.3     1  UNL1        0.0991
      2 C         138.4732  144.7337  162.9087 C.ar    1  UNL1       -0.0000
      3 C         137.8182  143.3883  163.0134 C.ar    1  UNL1       -0.0003
      4 C         138.4627  142.3013  163.8215 C.ar    1  UNL1       -0.0029
      5 C         139.7621  142.5596  164.5249 C.ar    1  UNL1       -0.0061
      6 C         140.4170  143.9050  164.4201 C.ar    1  UNL1       -0.0029
      7 C         139.7726  144.9920  163.6120 C.ar    1  UNL1       -0.0003
      8 N         139.7376  140.1362  165.4610 N.3     1  UNL1       -0.2690
      9 C         140.0699  139.0357  164.4975 C.3     1  UNL1        0.0724
     10 C         139.4009  137.6992  164.6255 C.3     1  UNL1        0.0174
     11 C         138.3995  137.4633  165.7171 C.3     1  UNL1        0.0029
     12 C         138.0671  138.5639  166.6806 C.3     1  UNL1        0.0174
     13 C         138.7361  139.9002  166.5526 C.3     1  UNL1        0.0724
     14 C         141.7200  141.7219  166.0130 C.3     1  UNL1        0.0991
     15 C         141.7495  142.2261  167.4255 C.ar    1  UNL1       -0.0061
     16 C         140.5324  142.8742  168.0161 C.ar    1  UNL1       -0.0029
     17 C         140.5619  143.3783  169.4285 C.ar    1  UNL1       -0.0003
     18 C         141.8085  143.2343  170.2504 C.ar    1  UNL1       -0.0000
     19 C         143.0255  142.5862  169.6598 C.ar    1  UNL1       -0.0003
     20 C         142.9960  142.0821  168.2474 C.ar    1  UNL1       -0.0029
     21 N         143.0041  141.4672  165.2807 N.3     1  UNL1       -0.2690
     22 C         143.4852  140.0611  165.0772 C.3     1  UNL1        0.0724
     23 C         144.7692  139.8063  164.3449 C.3     1  UNL1        0.0174
     24 C         145.5722  140.9577  163.8160 C.3     1  UNL1        0.0029
     25 C         145.0912  142.3638  164.0195 C.3     1  UNL1        0.0174
     26 C         143.8071  142.6185  164.7519 C.3     1  UNL1        0.0724
@<TRIPOS>BOND
     1     2     3   ar
     2     3     4   ar
     3     4     5   ar
     4     5     1    1
     5     1    14    1
     6    14    15    1
     7    15    16   ar
     8    16    17   ar
     9    17    18   ar
    10    18    19   ar
    11    19    20   ar
    12    14    21    1
    13    21    22    1
    14    22    23    1
    15    23    24    1
    16    24    25    1
    17    25    26    1
    18     1     8    1
    19     8     9    1
    20     9    10    1
    21    10    11    1
    22    11    12    1
    23    12    13    1
    24     5     6   ar
    25     6     7   ar
    26     7     2   ar
    27    20    15   ar
    28    26    21    1
    29    13     8    1
@<TRIPOS>MOLECULE
*****
 26 29 0 0 0
SMALL
GASTEIGER

@<TRIPOS>ATOM
      1 C         140.4150  141.4613  165.3078 C.3     1  UNL1        0.0991
      2 C         138.4907  137.4100  165.6745 C.ar    1  UNL1       -0.0000
      3 C         138.1094  138.5098  166.6205 C.ar    1  UNL1       -0.0003
      4 C         138.7509  139.8602  166.4983 C.ar    1  UNL1       -0.0029
      5 C         139.7736  140.1109  165.4301 C.ar    1  UNL1       -0.0061
      6 C         140.1548  139.0111  164.4840 C.ar    1  UNL1       -0.0029
      7 C         139.5134  137.6606  164.6063 C.ar    1  UNL1       -0.0003
      8 N         139.7492  142.5377  164.5029 N.3     1  UNL1       -0.2690
      9 C         140.3374  143.9170  164.4633 C.3     1  UNL1        0.0724
     10 C         139.6716  144.9935  163.6582 C.3     1  UNL1        0.0174
     11 C         138.4176  144.6906  162.8928 C.3     1  UNL1        0.0029
     12 C         137.8295  143.3113  162.9324 C.3     1  UNL1        0.0174
     13 C         138.4952  142.2348  163.7374 C.3     1  UNL1        0.0724
     14 C         141.7221  141.7353  165.9906 C.3     1  UNL1        0.0991
     15 C         143.0120  141.5154  165.2571 C.ar    1  UNL1       -0.0061
     16 C         143.5420  140.1243  165.0725 C.ar    1  UNL1       -0.0029
     17 C         144.8318  139.9043  164.3391 C.ar    1  UNL1       -0.0003
     18 C         145.5916  141.0755  163.7902 C.ar    1  UNL1       -0.0000
     19 C         145.0616  142.4665  163.9748 C.ar    1  UNL1       -0.0003
     20 C         143.7718  142.6864  164.7083 C.ar    1  UNL1       -0.0029
     21 N         141.7395  142.2293  167.4069 N.3     1  UNL1       -0.2690
     22 C         142.9867  142.1015  168.2305 C.3     1  UNL1        0.0724
     23 C         143.0041  142.5954  169.6467 C.3     1  UNL1        0.0174
     24 C         141.7743  143.2171  170.2393 C.3     1  UNL1        0.0029
     25 C         140.5272  143.3449  169.4158 C.3     1  UNL1        0.0174
     26 C         140.5098  142.8510  167.9995 C.3     1  UNL1        0.0724
@<TRIPOS>BOND
     1     2     3   ar
     2     3     4   ar
     3     4     5   ar
     4     5     1    1
     5     1    14    1
     6    14    15    1
     7    15    16   ar
     8    16    17   ar
     9    17    18   ar
    10    18    19   ar
    11    19    20   ar
    12    14    21    1
    13    21    22    1
    14    22    23    1
    15    23    24    1
    16    24    25    1
    17    25    26    1
    18     1     8    1
    19     8     9    1
    20     9    10    1
    21    10    11    1
    22    11    12    1
    23    12    13    1
    24     5     6   ar
    25     6     7   ar
    26     7     2   ar
    27    20    15   ar
    28    26    21    1
    29    13     8    1
@<TRIPOS>MOLECULE
*****
 26 29 0 0 0
SMALL
GASTEIGER

@<TRIPOS>ATOM
      1 C         141.6810  141.6543  166.0596 C.3     1  UNL1        0.0991
      2 C         145.5261  140.8563  163.8621 C.ar    1  UNL1       -0.0000
      3 C         144.7420  139.7157  164.4402 C.ar    1  UNL1       -0.0003
      4 C         143.4603  139.9817  165.1726 C.ar    1  UNL1       -0.0029
      5 C         142.9627  141.3883  165.3271 C.ar    1  UNL1       -0.0061
      6 C         143.7469  142.5289  164.7491 C.ar    1  UNL1       -0.0029
      7 C         145.0285  142.2629  164.0166 C.ar    1  UNL1       -0.0003
      8 N         141.7150  142.1799  167.4640 N.3     1  UNL1       -0.2690
      9 C         142.9764  142.0848  168.2701 C.3     1  UNL1        0.0724
     10 C         143.0103  142.6105  169.6747 C.3     1  UNL1        0.0174
     11 C         141.7829  143.2313  170.2730 C.3     1  UNL1        0.0029
     12 C         140.5215  143.3264  169.4668 C.3     1  UNL1        0.0174
     13 C         140.4875  142.8008  168.0624 C.3     1  UNL1        0.0724
     14 C         140.3654  141.3947  165.3876 C.3     1  UNL1        0.0991
     15 C         139.7160  140.0476  165.5053 C.ar    1  UNL1       -0.0061
     16 C         140.0846  138.9513  164.5501 C.ar    1  UNL1       -0.0029
     17 C         139.4352  137.6043  164.6678 C.ar    1  UNL1       -0.0003
     18 C         138.4173  137.3536  165.7407 C.ar    1  UNL1       -0.0000
     19 C         138.0487  138.4499  166.6958 C.ar    1  UNL1       -0.0003
     20 C         138.6981  139.7969  166.5781 C.ar    1  UNL1       -0.0029
     21 N         139.6990  142.4821  164.5979 N.3     1  UNL1       -0.2690
     22 C         138.4263  142.1983  163.8565 C.3     1  UNL1        0.0724
     23 C         137.7599  143.2856  163.0668 C.3     1  UNL1        0.0174
     24 C         138.3663  144.6568  163.0185 C.3     1  UNL1        0.0029
     25 C         139.6390  144.9406  163.7598 C.3     1  UNL1        0.0174
     26 C         140.3054  143.8531  164.5496 C.3     1  UNL1        0.0724
@<TRIPOS>BOND
     1     2     3   ar
     2     3     4   ar
     3     4     5   ar
     4     5     1    1
     5     1    14    1
     6    14    15    1
     7    15    16   ar
     8    16    17   ar
     9    17    18   ar
    10    18    19   ar
    11    19    20   ar
    12    14    21    1
    13    21    22    1
    14    22    23    1
    15    23    24    1
    16    24    25    1
    17    25    26    1
    18     1     8    1
    19     8     9    1
    20     9    10    1
    21    10    11    1
    22    11    12    1
    23    12    13    1
    24     5     6   ar
    25     6     7   ar
    26     7     2   ar
    27    20    15   ar
    28    26    21    1
    29    13     8    1
@<TRIPOS>MOLECULE
*****
 26 29 0 0 0
SMALL
GASTEIGER

@<TRIPOS>ATOM
      1 C         140.4351  141.4752  165.2947 C.3     1  UNL1        0.0991
      2 C         138.4129  144.6988  162.8929 C.ar    1  UNL1       -0.0000
      3 C         137.9380  143.2795  162.7930 C.ar    1  UNL1       -0.0003
      4 C         138.6121  142.2050  163.5936 C.ar    1  UNL1       -0.0029
      5 C         139.7611  142.5497  164.4941 C.ar    1  UNL1       -0.0061
      6 C         140.2359  143.9690  164.5941 C.ar    1  UNL1       -0.0029
      7 C         139.5618  145.0436  163.7934 C.ar    1  UNL1       -0.0003
      8 N         139.8009  140.1214  165.4170 N.3     1  UNL1       -0.2690
      9 C         138.7363  139.8822  166.4463 C.3     1  UNL1        0.0724
     10 C         138.1020  138.5284  166.5686 C.3     1  UNL1        0.0174
     11 C         138.5323  137.4139  165.6616 C.3     1  UNL1        0.0029
     12 C         139.5968  137.6531  164.6323 C.3     1  UNL1        0.0174
     13 C         140.2311  139.0068  164.5100 C.3     1  UNL1        0.0724
     14 C         141.7435  141.7544  165.9730 C.3     1  UNL1        0.0991
     15 C         143.0308  141.5638  165.2270 C.ar    1  UNL1       -0.0061
     16 C         143.5999  140.1869  165.0528 C.ar    1  UNL1       -0.0029
     17 C         144.8872  139.9963  164.3067 C.ar    1  UNL1       -0.0003
     18 C         145.6054  141.1827  163.7349 C.ar    1  UNL1       -0.0000
     19 C         145.0362  142.5595  163.9092 C.ar    1  UNL1       -0.0003
     20 C         143.7490  142.7501  164.6552 C.ar    1  UNL1       -0.0029
     21 N         141.7646  142.2242  167.3975 N.3     1  UNL1       -0.2690
     22 C         143.0227  142.1098  168.2063 C.3     1  UNL1        0.0724
     23 C         143.0439  142.5795  169.6307 C.3     1  UNL1        0.0174
     24 C         141.8070  143.1637  170.2463 C.3     1  UNL1        0.0029
     25 C         140.5489  143.2781  169.4374 C.3     1  UNL1        0.0174
     26 C         140.5278  142.8083  168.0130 C.3     1  UNL1        0.0724
@<TRIPOS>BOND
     1     2     3   ar
     2     3     4   ar
     3     4     5   ar
     4     5     1    1
     5     1    14    1
     6    14    15    1
     7    15    16   ar
     8    16    17   ar
     9    17    18   ar
    10    18    19   ar
    11    19    20   ar
    12    14    21    1
    13    21    22    1
    14    22    23    1
    15    23    24    1
    16    24    25    1
    17    25    26    1
    18     1     8    1
    19     8     9    1
    20     9    10    1
    21    10    11    1
    22    11    12    1
    23    12    13    1
    24     5     6   ar
    25     6     7   ar
    26     7     2   ar
    27    20    15   ar
    28    26    21    1
    29    13     8    1
