@<TRIPOS>MOLECULE
*****
 31 34 0 0 0
SMALL
GASTEIGER

@<TRIPOS>ATOM
      1 C         142.2644  138.2000  164.0683 C.ar    1  UNL1        0.0921
      2 C         141.1913  137.3094  163.5158 C.ar    1  UNL1        0.1367
      3 N         141.2132  137.4297  162.0208 N.ar    1  UNL1       -0.1621
      4 N         142.2999  138.3947  161.6493 N.ar    1  UNL1       -0.2263
      5 C         142.9496  138.8707  162.9147 C.ar    1  UNL1        0.1167
      6 O         140.7562  140.2139  165.7022 O.2     1  UNL1       -0.2521
      7 C         141.8404  139.3940  166.3365 C.2     1  UNL1        0.3083
      8 N         142.5945  138.3870  165.5195 N.am    1  UNL1       -0.2655
      9 N         142.1704  139.5810  167.7877 N.am    1  UNL1       -0.2673
     10 H         143.3061  137.8489  165.9358 H       1  UNL1        0.1565
     11 H         142.8820  139.0429  168.2040 H       1  UNL1        0.1564
     12 C         141.4163  140.5880  168.6047 C.ar    1  UNL1        0.0622
     13 C         140.1110  140.2117  169.2406 C.ar    1  UNL1        0.0156
     14 C         139.3569  141.2186  170.0576 C.ar    1  UNL1        0.0013
     15 C         139.9082  142.6019  170.2385 C.ar    1  UNL1        0.0009
     16 C         141.2135  142.9782  169.6025 C.ar    1  UNL1        0.0126
     17 C         141.9675  141.9712  168.7856 C.ar    1  UNL1        0.0711
     18 CL        143.2729  142.3475  168.1495 Cl      1  UNL1       -0.0810
     19 C         142.6716  138.8106  160.2569 C.ar    1  UNL1        0.0900
     20 C         142.1511  138.2047  158.9873 C.ar    1  UNL1        0.0547
     21 S         142.7869  138.9250  157.8353 S.2     1  UNL1       -0.0803
     22 C         143.7002  139.9760  158.3930 C.ar    1  UNL1        0.0843
     23 C         143.6290  139.9053  159.8896 C.ar    1  UNL1        0.0307
     24 C         144.5378  140.9303  157.5944 C.2     1  UNL1        0.2520
     25 O         144.3327  142.4093  157.7379 O.2     1  UNL1       -0.2696
     26 N         145.5804  140.4057  156.6523 N.am    1  UNL1       -0.2974
     27 H         145.7150  139.4350  156.5581 H       1  UNL1        0.1499
     28 C         146.4180  141.3600  155.8536 C.3     1  UNL1        0.1312
     29 C         147.5614  142.2810  156.1610 C.3     1  UNL1        0.1642
     30 O         147.6025  142.7096  154.7241 O.3     1  UNL1       -0.3501
     31 C         146.4591  141.7885  154.4168 C.3     1  UNL1        0.1642
@<TRIPOS>BOND
     1     6     7    2
     2     7     8   am
     3     8     1    1
     4     1     2   ar
     5     2     3   ar
     6     3     4   ar
     7     4    19    1
     8    19    20   ar
     9    20    21   ar
    10    21    22   ar
    11    22    24    1
    12    24    25    2
    13    24    26   am
    14    26    28    1
    15    28    29    1
    16    29    30    1
    17    30    31    1
    18    22    23   ar
    19     4     5   ar
    20     7     9   am
    21     9    12    1
    22    12    13   ar
    23    13    14   ar
    24    14    15   ar
    25    15    16   ar
    26    16    17   ar
    27    17    18    1
    28     5     1   ar
    29    17    12   ar
    30    23    19   ar
    31    31    28    1
    32     8    10    1
    33    26    27    1
    34     9    11    1
@<TRIPOS>MOLECULE
*****
 31 34 0 0 0
SMALL
GASTEIGER

@<TRIPOS>ATOM
      1 C         144.0297  139.5712  164.1615 C.ar    1  UNL1        0.0921
      2 C         145.0075  140.5975  163.6711 C.ar    1  UNL1        0.1367
      3 N         144.9370  140.6261  162.1730 N.ar    1  UNL1       -0.1621
      4 N         143.9156  139.6175  161.7376 N.ar    1  UNL1       -0.2263
      5 C         143.3549  138.9656  162.9666 C.ar    1  UNL1        0.1167
      6 O         142.1763  141.2518  165.8171 O.2     1  UNL1       -0.2521
      7 C         142.8452  140.0537  166.4231 C.2     1  UNL1        0.3083
      8 N         143.7719  139.2134  165.5952 N.am    1  UNL1       -0.2655
      9 N         142.5875  139.6959  167.8567 N.am    1  UNL1       -0.2673
     10 H         144.2109  138.4270  165.9929 H       1  UNL1        0.1565
     11 H         143.0265  138.9095  168.2544 H       1  UNL1        0.1564
     12 C         141.6608  140.5362  168.6846 C.ar    1  UNL1        0.0622
     13 C         140.2588  140.0714  168.9460 C.ar    1  UNL1        0.0156
     14 C         139.3322  140.9116  169.7738 C.ar    1  UNL1        0.0013
     15 C         139.8076  142.2167  170.3402 C.ar    1  UNL1        0.0009
     16 C         141.2096  142.6816  170.0787 C.ar    1  UNL1        0.0126
     17 C         142.1362  141.8413  169.2509 C.ar    1  UNL1        0.0711
     18 CL        143.5382  142.3061  168.9894 Cl      1  UNL1       -0.0810
     19 C         143.5238  139.3142  160.3218 C.ar    1  UNL1        0.0900
     20 C         143.6433  140.2486  159.1545 C.ar    1  UNL1        0.0547
     21 S         143.1371  139.5351  157.9360 S.2     1  UNL1       -0.0803
     22 C         142.7047  138.1598  158.3503 C.ar    1  UNL1        0.0843
     23 C         142.9437  138.0233  159.8248 C.ar    1  UNL1        0.0307
     24 C         142.1335  137.1060  157.4485 C.2     1  UNL1        0.2520
     25 O         140.7543  137.2708  156.8821 O.2     1  UNL1       -0.2696
     26 N         142.9414  135.8876  157.1130 N.am    1  UNL1       -0.2974
     27 H         143.8466  135.7795  157.4848 H       1  UNL1        0.1499
     28 C         142.3703  134.8338  156.2112 C.3     1  UNL1        0.1312
     29 C         141.4999  134.8412  154.9895 C.3     1  UNL1        0.1642
     30 O         141.5626  133.3435  154.9358 O.3     1  UNL1       -0.3501
     31 C         142.4329  133.3361  156.1575 C.3     1  UNL1        0.1642
@<TRIPOS>BOND
     1     6     7    2
     2     7     8   am
     3     8     1    1
     4     1     2   ar
     5     2     3   ar
     6     3     4   ar
     7     4    19    1
     8    19    20   ar
     9    20    21   ar
    10    21    22   ar
    11    22    24    1
    12    24    25    2
    13    24    26   am
    14    26    28    1
    15    28    29    1
    16    29    30    1
    17    30    31    1
    18    22    23   ar
    19     4     5   ar
    20     7     9   am
    21     9    12    1
    22    12    13   ar
    23    13    14   ar
    24    14    15   ar
    25    15    16   ar
    26    16    17   ar
    27    17    18    1
    28     5     1   ar
    29    17    12   ar
    30    23    19   ar
    31    31    28    1
    32     8    10    1
    33    26    27    1
    34     9    11    1
@<TRIPOS>MOLECULE
*****
 31 34 0 0 0
SMALL
GASTEIGER

@<TRIPOS>ATOM
      1 C         138.2835  140.2653  163.7776 C.ar    1  UNL1        0.0921
      2 C         137.4001  141.3416  163.2198 C.ar    1  UNL1        0.1367
      3 N         137.5017  141.2957  161.7239 N.ar    1  UNL1       -0.1621
      4 N         138.4478  140.1909  161.3572 N.ar    1  UNL1       -0.2263
      5 C         138.9310  139.5541  162.6265 C.ar    1  UNL1        0.1167
      6 O         140.2691  141.8361  165.3870 O.2     1  UNL1       -0.2521
      7 C         139.4769  140.7401  166.0360 C.2     1  UNL1        0.3083
      8 N         138.4841  139.9547  165.2313 N.am    1  UNL1       -0.2655
      9 N         139.6775  140.4295  167.4897 N.am    1  UNL1       -0.2673
     10 H         137.9641  139.2353  165.6572 H       1  UNL1        0.1565
     11 H         139.1576  139.7101  167.9157 H       1  UNL1        0.1564
     12 C         140.6703  141.2149  168.2944 C.ar    1  UNL1        0.0622
     13 C         140.2216  142.4141  169.0756 C.ar    1  UNL1        0.0156
     14 C         141.2144  143.1995  169.8803 C.ar    1  UNL1        0.0013
     15 C         142.6559  142.7855  169.9038 C.ar    1  UNL1        0.0009
     16 C         143.1047  141.5863  169.1225 C.ar    1  UNL1        0.0126
     17 C         142.1119  140.8010  168.3179 C.ar    1  UNL1        0.0711
     18 CL        142.5606  139.6016  167.5366 Cl      1  UNL1       -0.0810
     19 C         138.8416  139.7929  159.9657 C.ar    1  UNL1        0.0900
     20 C         138.4495  140.4998  158.7022 C.ar    1  UNL1        0.0547
     21 S         139.0622  139.7619  157.5489 S.2     1  UNL1       -0.0803
     22 C         139.8330  138.5989  158.0997 C.ar    1  UNL1        0.0843
     23 C         139.6966  138.6181  159.5933 C.ar    1  UNL1        0.0307
     24 C         140.6046  137.5933  157.2976 C.2     1  UNL1        0.2520
     25 O         139.9092  136.7788  156.2473 O.2     1  UNL1       -0.2696
     26 N         142.0715  137.4021  157.5459 N.am    1  UNL1       -0.2974
     27 H         142.5278  137.9366  158.2352 H       1  UNL1        0.1499
     28 C         142.8431  136.3964  156.7438 C.3     1  UNL1        0.1312
     29 C         143.9656  136.4672  155.7513 C.3     1  UNL1        0.1642
     30 O         143.9344  134.9743  155.6095 O.3     1  UNL1       -0.3501
     31 C         142.8119  134.9035  156.6021 C.3     1  UNL1        0.1642
@<TRIPOS>BOND
     1     6     7    2
     2     7     8   am
     3     8     1    1
     4     1     2   ar
     5     2     3   ar
     6     3     4   ar
     7     4    19    1
     8    19    20   ar
     9    20    21   ar
    10    21    22   ar
    11    22    24    1
    12    24    25    2
    13    24    26   am
    14    26    28    1
    15    28    29    1
    16    29    30    1
    17    30    31    1
    18    22    23   ar
    19     4     5   ar
    20     7     9   am
    21     9    12    1
    22    12    13   ar
    23    13    14   ar
    24    14    15   ar
    25    15    16   ar
    26    16    17   ar
    27    17    18    1
    28     5     1   ar
    29    17    12   ar
    30    23    19   ar
    31    31    28    1
    32     8    10    1
    33    26    27    1
    34     9    11    1
@<TRIPOS>MOLECULE
*****
 31 34 0 0 0
SMALL
GASTEIGER

@<TRIPOS>ATOM
      1 C         144.5073  142.7204  164.3331 C.ar    1  UNL1        0.0921
      2 C         145.5913  141.8088  163.8393 C.ar    1  UNL1        0.1367
      3 N         145.5001  141.7481  162.3433 N.ar    1  UNL1       -0.1621
      4 N         144.3597  142.6221  161.9126 N.ar    1  UNL1       -0.2263
      5 C         143.7461  143.2230  163.1423 C.ar    1  UNL1        0.1167
      6 O         142.7038  140.9785  165.9804 O.2     1  UNL1       -0.2521
      7 C         143.3308  142.1973  166.5898 C.2     1  UNL1        0.3083
      8 N         144.2326  143.0682  165.7661 N.am    1  UNL1       -0.2655
      9 N         143.0562  142.5451  168.0228 N.am    1  UNL1       -0.2673
     10 H         144.6442  143.8681  166.1661 H       1  UNL1        0.1565
     11 H         143.4678  143.3450  168.4228 H       1  UNL1        0.1564
     12 C         142.1544  141.6742  168.8465 C.ar    1  UNL1        0.0622
     13 C         142.6161  140.3145  169.2800 C.ar    1  UNL1        0.0156
     14 C         141.7143  139.4436  170.1036 C.ar    1  UNL1        0.0013
     15 C         140.3509  139.9325  170.4937 C.ar    1  UNL1        0.0009
     16 C         139.8893  141.2922  170.0602 C.ar    1  UNL1        0.0126
     17 C         140.7910  142.1630  169.2366 C.ar    1  UNL1        0.0711
     18 CL        140.3294  143.5228  168.8030 Cl      1  UNL1       -0.0810
     19 C         143.9116  142.8544  160.5000 C.ar    1  UNL1        0.0900
     20 C         144.6254  142.3978  159.2623 C.ar    1  UNL1        0.0547
     21 S         143.8259  142.8453  158.0746 S.2     1  UNL1       -0.0803
     22 C         142.6181  143.5783  158.5783 C.ar    1  UNL1        0.0843
     23 C         142.6710  143.5839  160.0773 C.ar    1  UNL1        0.0307
     24 C         141.5456  144.1971  157.7317 C.2     1  UNL1        0.2520
     25 O         140.3756  143.3728  157.2825 O.2     1  UNL1       -0.2696
     26 N         141.6429  145.6402  157.3342 N.am    1  UNL1       -0.2974
     27 H         142.4108  146.1812  157.6290 H       1  UNL1        0.1499
     28 C         140.5704  146.2590  156.4876 C.3     1  UNL1        0.1312
     29 C         140.2782  146.3121  155.0172 C.3     1  UNL1        0.1642
     30 O         139.0536  147.1342  155.2902 O.3     1  UNL1       -0.3501
     31 C         139.3458  147.0811  156.7605 C.3     1  UNL1        0.1642
@<TRIPOS>BOND
     1     6     7    2
     2     7     8   am
     3     8     1    1
     4     1     2   ar
     5     2     3   ar
     6     3     4   ar
     7     4    19    1
     8    19    20   ar
     9    20    21   ar
    10    21    22   ar
    11    22    24    1
    12    24    25    2
    13    24    26   am
    14    26    28    1
    15    28    29    1
    16    29    30    1
    17    30    31    1
    18    22    23   ar
    19     4     5   ar
    20     7     9   am
    21     9    12    1
    22    12    13   ar
    23    13    14   ar
    24    14    15   ar
    25    15    16   ar
    26    16    17   ar
    27    17    18    1
    28     5     1   ar
    29    17    12   ar
    30    23    19   ar
    31    31    28    1
    32     8    10    1
    33    26    27    1
    34     9    11    1
@<TRIPOS>MOLECULE
*****
 31 34 0 0 0
SMALL
GASTEIGER

@<TRIPOS>ATOM
      1 C         143.8597  139.2042  160.9775 C.ar    1  UNL1        0.0921
      2 C         143.5713  138.0693  161.9149 C.ar    1  UNL1        0.1367
      3 N         143.4476  138.6320  163.2998 N.ar    1  UNL1       -0.1621
      4 N         143.6596  140.1148  163.2183 N.ar    1  UNL1       -0.2263
      5 C         143.9143  140.4684  161.7830 C.ar    1  UNL1        0.1167
      6 O         141.6388  138.1840  159.2376 O.2     1  UNL1       -0.2521
      7 C         142.9482  138.5842  158.6248 C.2     1  UNL1        0.3083
      8 N         144.0586  139.0943  159.4948 N.am    1  UNL1       -0.2655
      9 N         143.1471  138.4742  157.1422 N.am    1  UNL1       -0.2673
     10 H         144.9180  139.3569  159.0926 H       1  UNL1        0.1565
     11 H         144.0064  138.7368  156.7400 H       1  UNL1        0.1564
     12 C         142.0366  137.9641  156.2722 C.ar    1  UNL1        0.0622
     13 C         141.1360  138.9307  155.5619 C.ar    1  UNL1        0.0156
     14 C         140.0256  138.4206  154.6920 C.ar    1  UNL1        0.0013
     15 C         139.8158  136.9439  154.5324 C.ar    1  UNL1        0.0009
     16 C         140.7164  135.9774  155.2428 C.ar    1  UNL1        0.0126
     17 C         141.8268  136.4875  156.1127 C.ar    1  UNL1        0.0711
     18 CL        142.7274  135.5209  156.8232 Cl      1  UNL1       -0.0810
     19 C         143.6232  141.0752  164.3699 C.ar    1  UNL1        0.0900
     20 C         144.1342  142.4854  164.3583 C.ar    1  UNL1        0.0547
     21 S         143.8963  143.0758  165.7165 S.2     1  UNL1       -0.0803
     22 C         143.2383  142.0305  166.5676 C.ar    1  UNL1        0.0843
     23 C         143.0696  140.7940  165.7353 C.ar    1  UNL1        0.0307
     24 C         142.8222  142.1930  167.9995 C.2     1  UNL1        0.2520
     25 O         143.7958  142.7285  169.0073 O.2     1  UNL1       -0.2696
     26 N         141.4327  141.8201  168.4237 N.am    1  UNL1       -0.2974
     27 H         140.7937  141.4687  167.7623 H       1  UNL1        0.1499
     28 C         141.0165  141.9826  169.8556 C.3     1  UNL1        0.1312
     29 C         141.4111  141.3434  171.1540 C.3     1  UNL1        0.1642
     30 O         140.4280  142.2125  171.8807 O.3     1  UNL1       -0.3501
     31 C         140.0334  142.8517  170.5824 C.3     1  UNL1        0.1642
@<TRIPOS>BOND
     1     6     7    2
     2     7     8   am
     3     8     1    1
     4     1     2   ar
     5     2     3   ar
     6     3     4   ar
     7     4    19    1
     8    19    20   ar
     9    20    21   ar
    10    21    22   ar
    11    22    24    1
    12    24    25    2
    13    24    26   am
    14    26    28    1
    15    28    29    1
    16    29    30    1
    17    30    31    1
    18    22    23   ar
    19     4     5   ar
    20     7     9   am
    21     9    12    1
    22    12    13   ar
    23    13    14   ar
    24    14    15   ar
    25    15    16   ar
    26    16    17   ar
    27    17    18    1
    28     5     1   ar
    29    17    12   ar
    30    23    19   ar
    31    31    28    1
    32     8    10    1
    33    26    27    1
    34     9    11    1
@<TRIPOS>MOLECULE
*****
 31 34 0 0 0
SMALL
GASTEIGER

@<TRIPOS>ATOM
      1 C         138.7644  139.0955  164.5351 C.ar    1  UNL1        0.0921
      2 C         138.8788  137.8223  163.7503 C.ar    1  UNL1        0.1367
      3 N         138.8303  138.1706  162.2921 N.ar    1  UNL1       -0.1621
      4 N         138.6859  139.6592  162.1757 N.ar    1  UNL1       -0.2263
      5 C         138.6451  140.2307  163.5619 C.ar    1  UNL1        0.1167
      6 O         140.7751  140.8576  165.8959 O.2     1  UNL1       -0.2521
      7 C         139.7739  140.0939  166.7109 C.2     1  UNL1        0.3083
      8 N         138.7685  139.2129  166.0304 N.am    1  UNL1       -0.2655
      9 N         139.7779  140.2113  168.2063 N.am    1  UNL1       -0.2673
     10 H         138.1113  138.7116  166.5653 H       1  UNL1        0.1565
     11 H         139.1208  139.7100  168.7412 H       1  UNL1        0.1564
     12 C         140.7833  141.0924  168.8867 C.ar    1  UNL1        0.0622
     13 C         140.4112  142.4918  169.2778 C.ar    1  UNL1        0.0156
     14 C         141.4166  143.3728  169.9582 C.ar    1  UNL1        0.0013
     15 C         142.7941  142.8543  170.2476 C.ar    1  UNL1        0.0009
     16 C         143.1662  141.4549  169.8565 C.ar    1  UNL1        0.0126
     17 C         142.1608  140.5739  169.1761 C.ar    1  UNL1        0.0711
     18 CL        142.5329  139.1743  168.7850 Cl      1  UNL1       -0.0810
     19 C         138.5977  140.4391  160.8974 C.ar    1  UNL1        0.0900
     20 C         139.2170  141.7805  160.6386 C.ar    1  UNL1        0.0547
     21 S         138.8768  142.1850  159.2348 S.2     1  UNL1       -0.0803
     22 C         138.0471  141.0936  158.6261 C.ar    1  UNL1        0.0843
     23 C         137.8746  140.0146  159.6537 C.ar    1  UNL1        0.0307
     24 C         137.4881  141.0831  157.2343 C.2     1  UNL1        0.2520
     25 O         137.7359  139.9079  156.3354 O.2     1  UNL1       -0.2696
     26 N         136.6813  142.2474  156.7411 N.am    1  UNL1       -0.2974
     27 H         136.5187  143.0187  157.3310 H       1  UNL1        0.1499
     28 C         136.1223  142.2369  155.3492 C.3     1  UNL1        0.1312
     29 C         134.9893  141.5296  154.6665 C.3     1  UNL1        0.1642
     30 O         135.3317  142.2220  153.3807 O.3     1  UNL1       -0.3501
     31 C         136.4647  142.9292  154.0634 C.3     1  UNL1        0.1642
@<TRIPOS>BOND
     1     6     7    2
     2     7     8   am
     3     8     1    1
     4     1     2   ar
     5     2     3   ar
     6     3     4   ar
     7     4    19    1
     8    19    20   ar
     9    20    21   ar
    10    21    22   ar
    11    22    24    1
    12    24    25    2
    13    24    26   am
    14    26    28    1
    15    28    29    1
    16    29    30    1
    17    30    31    1
    18    22    23   ar
    19     4     5   ar
    20     7     9   am
    21     9    12    1
    22    12    13   ar
    23    13    14   ar
    24    14    15   ar
    25    15    16   ar
    26    16    17   ar
    27    17    18    1
    28     5     1   ar
    29    17    12   ar
    30    23    19   ar
    31    31    28    1
    32     8    10    1
    33    26    27    1
    34     9    11    1
@<TRIPOS>MOLECULE
*****
 31 34 0 0 0
SMALL
GASTEIGER

@<TRIPOS>ATOM
      1 C         142.8193  137.7555  161.4445 C.ar    1  UNL1        0.0921
      2 C         143.8645  138.5362  162.1847 C.ar    1  UNL1        0.1367
      3 N         143.2424  139.0678  163.4419 N.ar    1  UNL1       -0.1621
      4 N         141.8126  138.6157  163.4786 N.ar    1  UNL1       -0.2263
      5 C         141.5511  137.8047  162.2441 C.ar    1  UNL1        0.1167
      6 O         142.3675  139.2262  158.8690 O.2     1  UNL1       -0.2521
      7 C         142.7830  137.7850  158.8468 C.2     1  UNL1        0.3083
      8 N         143.0089  137.0497  160.1346 N.am    1  UNL1       -0.2655
      9 N         142.9726  137.0792  157.5369 N.am    1  UNL1       -0.2673
     10 H         143.2815  136.1039  160.1201 H       1  UNL1        0.1565
     11 H         143.2452  136.1333  157.5224 H       1  UNL1        0.1564
     12 C         142.7467  137.8145  156.2491 C.ar    1  UNL1        0.0622
     13 C         143.9052  138.4368  155.5277 C.ar    1  UNL1        0.0156
     14 C         143.6793  139.1721  154.2399 C.ar    1  UNL1        0.0013
     15 C         142.2949  139.2851  153.6737 C.ar    1  UNL1        0.0009
     16 C         141.1364  138.6628  154.3952 C.ar    1  UNL1        0.0126
     17 C         141.3623  137.9275  155.6829 C.ar    1  UNL1        0.0711
     18 CL        140.2037  137.3052  156.4045 Cl      1  UNL1       -0.0810
     19 C         140.8188  138.9210  164.5599 C.ar    1  UNL1        0.0900
     20 C         139.3317  138.7505  164.4642 C.ar    1  UNL1        0.0547
     21 S         138.7315  139.1745  165.7719 S.2     1  UNL1       -0.0803
     22 C         139.8477  139.6071  166.6756 C.ar    1  UNL1        0.0843
     23 C         141.1378  139.4505  165.9266 C.ar    1  UNL1        0.0307
     24 C         139.6999  140.1084  168.0816 C.2     1  UNL1        0.2520
     25 O         138.5850  139.5988  168.9462 O.2     1  UNL1       -0.2696
     26 N         140.6668  141.1192  168.6231 N.am    1  UNL1       -0.2974
     27 H         141.3986  141.4537  168.0557 H       1  UNL1        0.1499
     28 C         140.5190  141.6205  170.0291 C.3     1  UNL1        0.1312
     29 C         141.0320  141.1854  171.3698 C.3     1  UNL1        0.1642
     30 O         140.3100  142.3295  172.0175 O.3     1  UNL1       -0.3501
     31 C         139.7970  142.7647  170.6768 C.3     1  UNL1        0.1642
@<TRIPOS>BOND
     1     6     7    2
     2     7     8   am
     3     8     1    1
     4     1     2   ar
     5     2     3   ar
     6     3     4   ar
     7     4    19    1
     8    19    20   ar
     9    20    21   ar
    10    21    22   ar
    11    22    24    1
    12    24    25    2
    13    24    26   am
    14    26    28    1
    15    28    29    1
    16    29    30    1
    17    30    31    1
    18    22    23   ar
    19     4     5   ar
    20     7     9   am
    21     9    12    1
    22    12    13   ar
    23    13    14   ar
    24    14    15   ar
    25    15    16   ar
    26    16    17   ar
    27    17    18    1
    28     5     1   ar
    29    17    12   ar
    30    23    19   ar
    31    31    28    1
    32     8    10    1
    33    26    27    1
    34     9    11    1
@<TRIPOS>MOLECULE
*****
 31 34 0 0 0
SMALL
GASTEIGER

@<TRIPOS>ATOM
      1 C         142.2738  138.1352  164.2233 C.ar    1  UNL1        0.0921
      2 C         141.1309  137.2710  163.7795 C.ar    1  UNL1        0.1367
      3 N         141.1019  137.2750  162.2798 N.ar    1  UNL1       -0.1621
      4 N         142.2269  138.1417  161.7967 N.ar    1  UNL1       -0.2263
      5 C         142.9511  138.6733  162.9979 C.ar    1  UNL1        0.1167
      6 O         140.7208  140.1177  165.8537 O.2     1  UNL1       -0.2521
      7 C         141.8933  139.4039  166.4584 C.2     1  UNL1        0.3083
      8 N         142.6698  138.4127  165.6432 N.am    1  UNL1       -0.2655
      9 N         142.2893  139.6814  167.8783 N.am    1  UNL1       -0.2673
     10 H         143.4393  137.9442  166.0401 H       1  UNL1        0.1565
     11 H         143.0588  139.2129  168.2753 H       1  UNL1        0.1564
     12 C         141.5127  140.6726  168.6935 C.ar    1  UNL1        0.0622
     13 C         140.2095  140.2723  169.3189 C.ar    1  UNL1        0.0156
     14 C         139.4330  141.2636  170.1341 C.ar    1  UNL1        0.0013
     15 C         139.9599  142.6551  170.3239 C.ar    1  UNL1        0.0009
     16 C         141.2632  143.0554  169.6985 C.ar    1  UNL1        0.0126
     17 C         142.0396  142.0642  168.8833 C.ar    1  UNL1        0.0711
     18 CL        143.3430  142.4645  168.2579 Cl      1  UNL1       -0.0810
     19 C         142.5677  138.4266  160.3640 C.ar    1  UNL1        0.0900
     20 C         143.0084  139.7485  159.8088 C.ar    1  UNL1        0.0547
     21 S         143.2408  139.5786  158.3366 S.2     1  UNL1       -0.0803
     22 C         142.9437  138.1517  157.9821 C.ar    1  UNL1        0.0843
     23 C         142.5277  137.4397  159.2352 C.ar    1  UNL1        0.0307
     24 C         143.0448  137.5435  156.6147 C.2     1  UNL1        0.2520
     25 O         144.3135  137.6785  155.8258 O.2     1  UNL1       -0.2696
     26 N         141.8774  136.8003  156.0362 N.am    1  UNL1       -0.2974
     27 H         141.0448  136.7117  156.5539 H       1  UNL1        0.1499
     28 C         141.9786  136.1921  154.6687 C.3     1  UNL1        0.1312
     29 C         141.8553  136.7092  153.2661 C.3     1  UNL1        0.1642
     30 O         142.1216  135.3319  152.7349 O.3     1  UNL1       -0.3501
     31 C         142.2448  134.8148  154.1376 C.3     1  UNL1        0.1642
@<TRIPOS>BOND
     1     6     7    2
     2     7     8   am
     3     8     1    1
     4     1     2   ar
     5     2     3   ar
     6     3     4   ar
     7     4    19    1
     8    19    20   ar
     9    20    21   ar
    10    21    22   ar
    11    22    24    1
    12    24    25    2
    13    24    26   am
    14    26    28    1
    15    28    29    1
    16    29    30    1
    17    30    31    1
    18    22    23   ar
    19     4     5   ar
    20     7     9   am
    21     9    12    1
    22    12    13   ar
    23    13    14   ar
    24    14    15   ar
    25    15    16   ar
    26    16    17   ar
    27    17    18    1
    28     5     1   ar
    29    17    12   ar
    30    23    19   ar
    31    31    28    1
    32     8    10    1
    33    26    27    1
    34     9    11    1
@<TRIPOS>MOLECULE
*****
 31 34 0 0 0
SMALL
GASTEIGER

@<TRIPOS>ATOM
      1 C         142.2297  139.3176  160.8506 C.ar    1  UNL1        0.0921
      2 C         141.8770  140.7744  160.7923 C.ar    1  UNL1        0.1367
      3 N         141.0491  141.0996  162.0001 N.ar    1  UNL1       -0.1621
      4 N         140.8900  139.8438  162.8049 N.ar    1  UNL1       -0.2263
      5 C         141.6196  138.7425  162.0944 C.ar    1  UNL1        0.1167
      6 O         140.9119  138.1355  158.4286 O.2     1  UNL1       -0.2521
      7 C         142.3896  137.9766  158.6311 C.2     1  UNL1        0.3083
      8 N         143.0485  138.5677  159.8421 N.am    1  UNL1       -0.2655
      9 N         143.2085  137.2267  157.6227 N.am    1  UNL1       -0.2673
     10 H         144.0184  138.4634  159.9751 H       1  UNL1        0.1565
     11 H         144.1784  137.1224  157.7556 H       1  UNL1        0.1564
     12 C         142.5496  136.6356  156.4116 C.ar    1  UNL1        0.0622
     13 C         141.9692  137.5339  155.3600 C.ar    1  UNL1        0.0156
     14 C         141.3103  136.9428  154.1490 C.ar    1  UNL1        0.0013
     15 C         141.2319  135.4533  153.9897 C.ar    1  UNL1        0.0009
     16 C         141.8124  134.5550  155.0413 C.ar    1  UNL1        0.0126
     17 C         142.4712  135.1461  156.2523 C.ar    1  UNL1        0.0711
     18 CL        143.0517  134.2478  157.3040 Cl      1  UNL1       -0.0810
     19 C         140.1340  139.7123  164.0937 C.ar    1  UNL1        0.0900
     20 C         138.8170  139.0181  164.2765 C.ar    1  UNL1        0.0547
     21 S         138.4313  139.1288  165.7218 S.2     1  UNL1       -0.0803
     22 C         139.5100  139.8914  166.4323 C.ar    1  UNL1        0.0843
     23 C         140.5623  140.2521  165.4261 C.ar    1  UNL1        0.0307
     24 C         139.5324  140.2334  167.8926 C.2     1  UNL1        0.2520
     25 O         138.6751  139.4668  168.8556 O.2     1  UNL1       -0.2696
     26 N         140.4121  141.3419  168.3899 N.am    1  UNL1       -0.2974
     27 H         140.9747  141.8450  167.7579 H       1  UNL1        0.1499
     28 C         140.4345  141.6839  169.8503 C.3     1  UNL1        0.1312
     29 C         141.0089  141.0459  171.0804 C.3     1  UNL1        0.1642
     30 O         140.4663  142.1675  171.9155 O.3     1  UNL1       -0.3501
     31 C         139.8919  142.8055  170.6854 C.3     1  UNL1        0.1642
@<TRIPOS>BOND
     1     6     7    2
     2     7     8   am
     3     8     1    1
     4     1     2   ar
     5     2     3   ar
     6     3     4   ar
     7     4    19    1
     8    19    20   ar
     9    20    21   ar
    10    21    22   ar
    11    22    24    1
    12    24    25    2
    13    24    26   am
    14    26    28    1
    15    28    29    1
    16    29    30    1
    17    30    31    1
    18    22    23   ar
    19     4     5   ar
    20     7     9   am
    21     9    12    1
    22    12    13   ar
    23    13    14   ar
    24    14    15   ar
    25    15    16   ar
    26    16    17   ar
    27    17    18    1
    28     5     1   ar
    29    17    12   ar
    30    23    19   ar
    31    31    28    1
    32     8    10    1
    33    26    27    1
    34     9    11    1
