@<TRIPOS>MOLECULE
*****
 33 37 0 0 0
SMALL
GASTEIGER

@<TRIPOS>ATOM
      1 O         140.7382  136.8748  163.1558 O.2     1  UNL1       -0.2668
      2 C         140.4620  138.3247  163.4228 C.2     1  UNL1        0.2806
      3 N         140.5968  139.3298  162.3176 N.am    1  UNL1       -0.2999
      4 H         140.4155  140.2815  162.4929 H       1  UNL1        0.1498
      5 C         140.0509  138.7696  164.7952 C.ar    1  UNL1        0.2014
      6 C         138.7864  138.2434  165.4068 C.ar    1  UNL1        0.0843
      7 C         138.3753  138.6882  166.7790 C.ar    1  UNL1        0.2018
      8 O         137.1108  138.1620  167.3906 O.2     1  UNL1       -0.2864
      9 C         139.2288  139.6593  167.5397 C.ar    1  UNL1        0.0738
     10 C         138.8177  140.1042  168.9119 C.ar    1  UNL1        0.0093
     11 C         139.6712  141.0752  169.6726 C.ar    1  UNL1        0.0369
     12 C         140.9357  141.6015  169.0610 C.ar    1  UNL1        0.1367
     13 O         141.7892  142.5726  169.8217 O.3     1  UNL1       -0.5054
     14 C         141.3468  141.1566  167.6887 C.ar    1  UNL1        0.0742
     15 C         140.4933  140.1856  166.9281 C.ar    1  UNL1        0.1515
     16 O         140.9044  139.7407  165.5558 O.2     1  UNL1       -0.4486
     17 H         141.5324  142.8504  170.6789 H       1  UNL1        0.2922
     18 C         141.0078  138.8850  160.9453 C.3     1  UNL1        0.0747
     19 C         142.4507  138.6006  160.6499 C.3     1  UNL1        0.0369
     20 C         142.8617  138.1558  159.2776 C.3     1  UNL1        0.0741
     21 N         141.8299  137.9953  158.2007 N.3     1  UNL1       -0.2688
     22 C         140.3870  138.2797  158.4962 C.3     1  UNL1        0.0741
     23 C         139.9760  138.7246  159.8685 C.3     1  UNL1        0.0369
     24 C         142.2409  137.5505  156.8285 C.3     1  UNL1        0.0992
     25 C         142.1918  136.0959  156.4654 C.ar    1  UNL1       -0.0029
     26 C         141.2683  135.6242  155.3817 C.ar    1  UNL1        0.0004
     27 C         141.2192  134.1696  155.0186 C.ar    1  UNL1        0.0399
     28 C         142.0935  133.1868  155.7394 C.ar    1  UNL1        0.1764
     29 C         143.0170  133.6585  156.8232 C.ar    1  UNL1        0.1762
     30 C         143.0661  135.1131  157.1862 C.ar    1  UNL1        0.0373
     31 O         143.7556  132.4659  157.3546 O.3     1  UNL1       -0.4346
     32 C         143.2885  131.2571  156.5992 C.3     1  UNL1        0.4294
     33 O         142.2613  131.7026  155.6010 O.3     1  UNL1       -0.4346
@<TRIPOS>BOND
     1     1     2    2
     2     2     3   am
     3     3    18    1
     4    18    19    1
     5    19    20    1
     6    20    21    1
     7    21    24    1
     8    24    25    1
     9    25    26   ar
    10    26    27   ar
    11    27    28   ar
    12    28    29   ar
    13    29    30   ar
    14    29    31    1
    15    31    32    1
    16    32    33    1
    17    21    22    1
    18    22    23    1
    19     2     5    1
    20     5     6   ar
    21     6     7   ar
    22     7     8    2
    23     7     9   ar
    24     9    10   ar
    25    10    11   ar
    26    11    12   ar
    27    12    13    1
    28    12    14   ar
    29    14    15   ar
    30    15    16   ar
    31    23    18    1
    32    16     5   ar
    33    30    25   ar
    34    15     9   ar
    35    33    28    1
    36     3     4    1
    37    13    17    1
@<TRIPOS>MOLECULE
*****
 33 37 0 0 0
SMALL
GASTEIGER

@<TRIPOS>ATOM
      1 O         141.5800  141.0836  163.0621 O.2     1  UNL1       -0.2668
      2 C         141.0164  139.9373  163.8484 C.2     1  UNL1        0.2806
      3 N         140.8859  138.5846  163.2134 N.am    1  UNL1       -0.2999
      4 H         140.5160  137.8322  163.7295 H       1  UNL1        0.1498
      5 C         140.5834  140.1436  165.2696 C.ar    1  UNL1        0.2014
      6 C         139.4641  139.3234  165.8392 C.ar    1  UNL1        0.0843
      7 C         139.0310  139.5297  167.2604 C.ar    1  UNL1        0.2018
      8 O         137.9117  138.7095  167.8300 O.2     1  UNL1       -0.2864
      9 C         139.7173  140.5562  168.1121 C.ar    1  UNL1        0.0738
     10 C         139.2842  140.7625  169.5333 C.ar    1  UNL1        0.0093
     11 C         139.9705  141.7890  170.3850 C.ar    1  UNL1        0.0369
     12 C         141.0898  142.6092  169.8154 C.ar    1  UNL1        0.1367
     13 O         141.7761  143.6357  170.6671 O.3     1  UNL1       -0.5054
     14 C         141.5229  142.4029  168.3942 C.ar    1  UNL1        0.0742
     15 C         140.8366  141.3764  167.5426 C.ar    1  UNL1        0.1515
     16 O         141.2697  141.1701  166.1213 O.2     1  UNL1       -0.4486
     17 H         141.5056  143.7646  171.5549 H       1  UNL1        0.2922
     18 C         141.3189  138.3782  161.7922 C.3     1  UNL1        0.0747
     19 C         142.7015  137.8786  161.4944 C.3     1  UNL1        0.0369
     20 C         143.1345  137.6722  160.0732 C.3     1  UNL1        0.0741
     21 N         142.1849  137.9654  158.9497 N.3     1  UNL1       -0.2688
     22 C         140.8022  138.4650  159.2475 C.3     1  UNL1        0.0741
     23 C         140.3692  138.6714  160.6688 C.3     1  UNL1        0.0369
     24 C         142.6179  137.7591  157.5285 C.3     1  UNL1        0.0992
     25 C         142.3135  136.4659  156.8320 C.ar    1  UNL1       -0.0029
     26 C         141.3206  136.4351  155.7080 C.ar    1  UNL1        0.0004
     27 C         141.0162  135.1419  155.0115 C.ar    1  UNL1        0.0399
     28 C         141.7047  133.8797  155.4389 C.ar    1  UNL1        0.1764
     29 C         142.6976  133.9106  156.5628 C.ar    1  UNL1        0.1762
     30 C         143.0019  135.2037  157.2594 C.ar    1  UNL1        0.0373
     31 O         143.2153  132.5169  156.7624 O.3     1  UNL1       -0.4346
     32 C         142.5424  131.6248  155.7618 C.3     1  UNL1        0.4294
     33 O         141.6088  132.4670  154.9438 O.3     1  UNL1       -0.4346
@<TRIPOS>BOND
     1     1     2    2
     2     2     3   am
     3     3    18    1
     4    18    19    1
     5    19    20    1
     6    20    21    1
     7    21    24    1
     8    24    25    1
     9    25    26   ar
    10    26    27   ar
    11    27    28   ar
    12    28    29   ar
    13    29    30   ar
    14    29    31    1
    15    31    32    1
    16    32    33    1
    17    21    22    1
    18    22    23    1
    19     2     5    1
    20     5     6   ar
    21     6     7   ar
    22     7     8    2
    23     7     9   ar
    24     9    10   ar
    25    10    11   ar
    26    11    12   ar
    27    12    13    1
    28    12    14   ar
    29    14    15   ar
    30    15    16   ar
    31    23    18    1
    32    16     5   ar
    33    30    25   ar
    34    15     9   ar
    35    33    28    1
    36     3     4    1
    37    13    17    1
@<TRIPOS>MOLECULE
*****
 33 37 0 0 0
SMALL
GASTEIGER

@<TRIPOS>ATOM
      1 O         139.6359  141.4606  163.1623 O.2     1  UNL1       -0.2668
      2 C         140.3052  142.1903  164.2890 C.2     1  UNL1        0.2806
      3 N         141.0958  143.4345  164.0119 N.am    1  UNL1       -0.2999
      4 H         141.5351  143.9135  164.7514 H       1  UNL1        0.1498
      5 C         140.1838  141.6758  165.6928 C.ar    1  UNL1        0.2014
      6 C         139.2701  140.5248  165.9934 C.ar    1  UNL1        0.0843
      7 C         139.1488  140.0103  167.3971 C.ar    1  UNL1        0.2018
      8 O         138.2351  138.8593  167.6977 O.2     1  UNL1       -0.2864
      9 C         139.9411  140.6469  168.5004 C.ar    1  UNL1        0.0738
     10 C         139.8197  140.1324  169.9041 C.ar    1  UNL1        0.0093
     11 C         140.6120  140.7689  171.0073 C.ar    1  UNL1        0.0369
     12 C         141.5257  141.9200  170.7067 C.ar    1  UNL1        0.1367
     13 O         142.3180  142.5565  171.8100 O.3     1  UNL1       -0.5054
     14 C         141.6471  142.4344  169.3030 C.ar    1  UNL1        0.0742
     15 C         140.8548  141.7979  168.1998 C.ar    1  UNL1        0.1515
     16 O         140.9761  142.3124  166.7960 O.2     1  UNL1       -0.4486
     17 H         142.2422  142.2351  172.6868 H       1  UNL1        0.2922
     18 C         141.2172  143.9490  162.6082 C.3     1  UNL1        0.0747
     19 C         140.3345  145.0681  162.1406 C.3     1  UNL1        0.0369
     20 C         140.4559  145.5825  160.7368 C.3     1  UNL1        0.0741
     21 N         141.4600  144.9780  159.8006 N.3     1  UNL1       -0.2688
     22 C         142.3426  143.8589  160.2682 C.3     1  UNL1        0.0741
     23 C         142.2212  143.3445  161.6720 C.3     1  UNL1        0.0369
     24 C         141.5813  145.4925  158.3969 C.3     1  UNL1        0.0992
     25 C         140.4455  145.3170  157.4329 C.ar    1  UNL1       -0.0029
     26 C         140.0452  146.4474  156.5318 C.ar    1  UNL1        0.0004
     27 C         138.9094  146.2719  155.5679 C.ar    1  UNL1        0.0399
     28 C         138.1739  144.9662  155.5051 C.ar    1  UNL1        0.1764
     29 C         138.5742  143.8358  156.4062 C.ar    1  UNL1        0.1762
     30 C         139.7101  144.0113  157.3701 C.ar    1  UNL1        0.0373
     31 O         137.6704  142.6731  156.1209 O.3     1  UNL1       -0.4346
     32 C         136.7115  143.0849  155.0434 C.3     1  UNL1        0.4294
     33 O         137.0227  144.5021  154.6629 O.3     1  UNL1       -0.4346
@<TRIPOS>BOND
     1     1     2    2
     2     2     3   am
     3     3    18    1
     4    18    19    1
     5    19    20    1
     6    20    21    1
     7    21    24    1
     8    24    25    1
     9    25    26   ar
    10    26    27   ar
    11    27    28   ar
    12    28    29   ar
    13    29    30   ar
    14    29    31    1
    15    31    32    1
    16    32    33    1
    17    21    22    1
    18    22    23    1
    19     2     5    1
    20     5     6   ar
    21     6     7   ar
    22     7     8    2
    23     7     9   ar
    24     9    10   ar
    25    10    11   ar
    26    11    12   ar
    27    12    13    1
    28    12    14   ar
    29    14    15   ar
    30    15    16   ar
    31    23    18    1
    32    16     5   ar
    33    30    25   ar
    34    15     9   ar
    35    33    28    1
    36     3     4    1
    37    13    17    1
@<TRIPOS>MOLECULE
*****
 33 37 0 0 0
SMALL
GASTEIGER

@<TRIPOS>ATOM
      1 O         139.0707  144.8772  161.6851 O.2     1  UNL1       -0.2668
      2 C         139.9444  143.6603  161.7616 C.2     1  UNL1        0.2806
      3 N         140.6803  143.1875  160.5431 N.am    1  UNL1       -0.2999
      4 H         141.2537  142.3888  160.5933 H       1  UNL1        0.1498
      5 C         140.0821  142.9161  163.0568 C.ar    1  UNL1        0.2014
      6 C         141.2412  143.2004  163.9655 C.ar    1  UNL1        0.0843
      7 C         141.3790  142.4563  165.2605 C.ar    1  UNL1        0.2018
      8 O         142.5380  142.7406  166.1693 O.2     1  UNL1       -0.2864
      9 C         140.3577  141.4278  165.6470 C.ar    1  UNL1        0.0738
     10 C         140.4955  140.6837  166.9420 C.ar    1  UNL1        0.0093
     11 C         139.4742  139.6553  167.3284 C.ar    1  UNL1        0.0369
     12 C         138.3152  139.3710  166.4197 C.ar    1  UNL1        0.1367
     13 O         137.2939  138.3425  166.8061 O.3     1  UNL1       -0.5054
     14 C         138.1774  140.1151  165.1246 C.ar    1  UNL1        0.0742
     15 C         139.1986  141.1435  164.7382 C.ar    1  UNL1        0.1515
     16 O         139.0609  141.8877  163.4431 O.2     1  UNL1       -0.4486
     17 H         137.3800  137.8776  167.6151 H       1  UNL1        0.2922
     18 C         140.5425  143.9316  159.2480 C.3     1  UNL1        0.0747
     19 C         139.5110  143.5072  158.2451 C.3     1  UNL1        0.0369
     20 C         139.3733  144.2513  156.9500 C.3     1  UNL1        0.0741
     21 N         140.2671  145.4199  156.6578 N.3     1  UNL1       -0.2688
     22 C         141.2987  145.8444  157.6606 C.3     1  UNL1        0.0741
     23 C         141.4364  145.1002  158.9557 C.3     1  UNL1        0.0369
     24 C         140.1294  146.1640  155.3627 C.3     1  UNL1        0.0992
     25 C         139.6447  147.5836  155.3612 C.ar    1  UNL1       -0.0029
     26 C         138.8439  148.1039  156.5178 C.ar    1  UNL1        0.0004
     27 C         138.3591  149.5234  156.5163 C.ar    1  UNL1        0.0399
     28 C         138.6752  150.4226  155.3581 C.ar    1  UNL1        0.1764
     29 C         139.4760  149.9023  154.2015 C.ar    1  UNL1        0.1762
     30 C         139.9607  148.4828  154.2030 C.ar    1  UNL1        0.0373
     31 O         139.6309  151.0147  153.2071 O.3     1  UNL1       -0.4346
     32 C         138.9258  152.2225  153.7494 C.3     1  UNL1        0.4294
     33 O         138.3351  151.8566  155.0787 O.3     1  UNL1       -0.4346
@<TRIPOS>BOND
     1     1     2    2
     2     2     3   am
     3     3    18    1
     4    18    19    1
     5    19    20    1
     6    20    21    1
     7    21    24    1
     8    24    25    1
     9    25    26   ar
    10    26    27   ar
    11    27    28   ar
    12    28    29   ar
    13    29    30   ar
    14    29    31    1
    15    31    32    1
    16    32    33    1
    17    21    22    1
    18    22    23    1
    19     2     5    1
    20     5     6   ar
    21     6     7   ar
    22     7     8    2
    23     7     9   ar
    24     9    10   ar
    25    10    11   ar
    26    11    12   ar
    27    12    13    1
    28    12    14   ar
    29    14    15   ar
    30    15    16   ar
    31    23    18    1
    32    16     5   ar
    33    30    25   ar
    34    15     9   ar
    35    33    28    1
    36     3     4    1
    37    13    17    1
@<TRIPOS>MOLECULE
*****
 33 37 0 0 0
SMALL
GASTEIGER

@<TRIPOS>ATOM
      1 O         143.9239  140.7709  164.1915 O.2     1  UNL1       -0.2668
      2 C         142.7274  140.0838  164.7798 C.2     1  UNL1        0.2806
      3 N         141.8238  139.2689  163.9025 N.am    1  UNL1       -0.2999
      4 H         141.0385  138.8179  164.2886 H       1  UNL1        0.1498
      5 C         142.4344  140.2114  166.2454 C.ar    1  UNL1        0.2014
      6 C         142.8903  139.1454  167.1970 C.ar    1  UNL1        0.0843
      7 C         142.5974  139.2730  168.6625 C.ar    1  UNL1        0.2018
      8 O         143.0533  138.2069  169.6141 O.2     1  UNL1       -0.2864
      9 C         141.8484  140.4667  169.1765 C.ar    1  UNL1        0.0738
     10 C         141.5554  140.5944  170.6420 C.ar    1  UNL1        0.0093
     11 C         140.8065  141.7881  171.1559 C.ar    1  UNL1        0.0369
     12 C         140.3506  142.8542  170.2043 C.ar    1  UNL1        0.1367
     13 O         139.6017  144.0479  170.7183 O.3     1  UNL1       -0.5054
     14 C         140.6436  142.7265  168.7388 C.ar    1  UNL1        0.0742
     15 C         141.3925  141.5328  168.2249 C.ar    1  UNL1        0.1515
     16 O         141.6855  141.4051  166.7593 O.2     1  UNL1       -0.4486
     17 H         139.4186  144.1277  171.6338 H       1  UNL1        0.2922
     18 C         142.1168  139.1412  162.4370 C.3     1  UNL1        0.0747
     19 C         143.2617  138.2907  161.9723 C.3     1  UNL1        0.0369
     20 C         143.5546  138.1630  160.5068 C.3     1  UNL1        0.0741
     21 N         142.7027  138.8858  159.5058 N.3     1  UNL1       -0.2688
     22 C         141.5578  139.7363  159.9705 C.3     1  UNL1        0.0741
     23 C         141.2649  139.8640  161.4361 C.3     1  UNL1        0.0369
     24 C         142.9956  138.7581  158.0403 C.3     1  UNL1        0.0992
     25 C         142.4736  137.5811  157.2709 C.ar    1  UNL1       -0.0029
     26 C         141.2985  137.7462  156.3533 C.ar    1  UNL1        0.0004
     27 C         140.7765  136.5692  155.5839 C.ar    1  UNL1        0.0399
     28 C         141.4296  135.2269  155.7320 C.ar    1  UNL1        0.1764
     29 C         142.6046  135.0618  156.6495 C.ar    1  UNL1        0.1762
     30 C         143.1266  136.2389  157.4190 C.ar    1  UNL1        0.0373
     31 O         143.0397  133.6274  156.5920 O.3     1  UNL1       -0.4346
     32 C         142.1336  132.9061  155.6388 C.3     1  UNL1        0.4294
     33 O         141.1384  133.8947  155.1073 O.3     1  UNL1       -0.4346
@<TRIPOS>BOND
     1     1     2    2
     2     2     3   am
     3     3    18    1
     4    18    19    1
     5    19    20    1
     6    20    21    1
     7    21    24    1
     8    24    25    1
     9    25    26   ar
    10    26    27   ar
    11    27    28   ar
    12    28    29   ar
    13    29    30   ar
    14    29    31    1
    15    31    32    1
    16    32    33    1
    17    21    22    1
    18    22    23    1
    19     2     5    1
    20     5     6   ar
    21     6     7   ar
    22     7     8    2
    23     7     9   ar
    24     9    10   ar
    25    10    11   ar
    26    11    12   ar
    27    12    13    1
    28    12    14   ar
    29    14    15   ar
    30    15    16   ar
    31    23    18    1
    32    16     5   ar
    33    30    25   ar
    34    15     9   ar
    35    33    28    1
    36     3     4    1
    37    13    17    1
@<TRIPOS>MOLECULE
*****
 33 37 0 0 0
SMALL
GASTEIGER

@<TRIPOS>ATOM
      1 O         142.9836  139.4020  158.3407 O.2     1  UNL1       -0.2668
      2 C         142.6461  137.9904  158.7195 C.2     1  UNL1        0.2806
      3 N         142.5411  137.6066  160.1658 N.am    1  UNL1       -0.2999
      4 H         142.3196  136.6801  160.4143 H       1  UNL1        0.1498
      5 C         142.4136  136.9626  157.6520 C.ar    1  UNL1        0.2014
      6 C         141.3219  137.1629  156.6430 C.ar    1  UNL1        0.0843
      7 C         141.0894  136.1352  155.5755 C.ar    1  UNL1        0.2018
      8 O         139.9977  136.3355  154.5665 O.2     1  UNL1       -0.2864
      9 C         141.9486  134.9070  155.5170 C.ar    1  UNL1        0.0738
     10 C         141.7161  133.8792  154.4495 C.ar    1  UNL1        0.0093
     11 C         142.5753  132.6511  154.3910 C.ar    1  UNL1        0.0369
     12 C         143.6670  132.4507  155.3999 C.ar    1  UNL1        0.1367
     13 O         144.5262  131.2225  155.3414 O.3     1  UNL1       -0.5054
     14 C         143.8995  133.4785  156.4674 C.ar    1  UNL1        0.0742
     15 C         143.0403  134.7066  156.5259 C.ar    1  UNL1        0.1515
     16 O         143.2728  135.7345  157.5935 O.2     1  UNL1       -0.4486
     17 H         144.3809  130.5805  154.6746 H       1  UNL1        0.2922
     18 C         142.7736  138.6344  161.2333 C.3     1  UNL1        0.0747
     19 C         144.1158  138.7383  161.8948 C.3     1  UNL1        0.0369
     20 C         144.3483  139.7661  162.9623 C.3     1  UNL1        0.0741
     21 N         143.2385  140.6900  163.3683 N.3     1  UNL1       -0.2688
     22 C         141.8963  140.5861  162.7068 C.3     1  UNL1        0.0741
     23 C         141.6638  139.5582  161.6393 C.3     1  UNL1        0.0369
     24 C         143.4710  141.7177  164.4358 C.3     1  UNL1        0.0992
     25 C         143.1891  141.3853  165.8711 C.ar    1  UNL1       -0.0029
     26 C         142.8750  139.9728  166.2661 C.ar    1  UNL1        0.0004
     27 C         142.5931  139.6404  167.7014 C.ar    1  UNL1        0.0399
     28 C         142.6252  140.7206  168.7417 C.ar    1  UNL1        0.1764
     29 C         142.9392  142.1331  168.3467 C.ar    1  UNL1        0.1762
     30 C         143.2211  142.4655  166.9114 C.ar    1  UNL1        0.0373
     31 O         142.8991  142.9803  169.5839 O.3     1  UNL1       -0.4346
     32 C         142.5602  142.0913  170.7436 C.3     1  UNL1        0.4294
     33 O         142.3910  140.6947  170.2230 O.3     1  UNL1       -0.4346
@<TRIPOS>BOND
     1     1     2    2
     2     2     3   am
     3     3    18    1
     4    18    19    1
     5    19    20    1
     6    20    21    1
     7    21    24    1
     8    24    25    1
     9    25    26   ar
    10    26    27   ar
    11    27    28   ar
    12    28    29   ar
    13    29    30   ar
    14    29    31    1
    15    31    32    1
    16    32    33    1
    17    21    22    1
    18    22    23    1
    19     2     5    1
    20     5     6   ar
    21     6     7   ar
    22     7     8    2
    23     7     9   ar
    24     9    10   ar
    25    10    11   ar
    26    11    12   ar
    27    12    13    1
    28    12    14   ar
    29    14    15   ar
    30    15    16   ar
    31    23    18    1
    32    16     5   ar
    33    30    25   ar
    34    15     9   ar
    35    33    28    1
    36     3     4    1
    37    13    17    1
@<TRIPOS>MOLECULE
*****
 33 37 0 0 0
SMALL
GASTEIGER

@<TRIPOS>ATOM
      1 O         144.2144  138.6420  160.1929 O.2     1  UNL1       -0.2668
      2 C         143.5083  139.9274  159.8786 C.2     1  UNL1        0.2806
      3 N         142.8083  140.0963  158.5627 N.am    1  UNL1       -0.2999
      4 H         142.3448  140.9400  158.3564 H       1  UNL1        0.1498
      5 C         143.5022  141.0441  160.8801 C.ar    1  UNL1        0.2014
      6 C         144.5158  141.0657  161.9856 C.ar    1  UNL1        0.0843
      7 C         144.5097  142.1823  162.9871 C.ar    1  UNL1        0.2018
      8 O         145.5234  142.2039  164.0925 O.2     1  UNL1       -0.2864
      9 C         143.4899  143.2775  162.8832 C.ar    1  UNL1        0.0738
     10 C         143.4838  144.3941  163.8847 C.ar    1  UNL1        0.0093
     11 C         142.4640  145.4892  163.7807 C.ar    1  UNL1        0.0369
     12 C         141.4504  145.4676  162.6753 C.ar    1  UNL1        0.1367
     13 O         140.4306  146.5628  162.5714 O.3     1  UNL1       -0.5054
     14 C         141.4565  144.3510  161.6738 C.ar    1  UNL1        0.0742
     15 C         142.4763  143.2559  161.7777 C.ar    1  UNL1        0.1515
     16 O         142.4824  142.1392  160.7762 O.2     1  UNL1       -0.4486
     17 H         140.4268  147.2603  163.1970 H       1  UNL1        0.2922
     18 C         142.8144  138.9797  157.5612 C.3     1  UNL1        0.0747
     19 C         141.8614  137.8313  157.7125 C.3     1  UNL1        0.0369
     20 C         141.8675  136.7147  156.7110 C.3     1  UNL1        0.0741
     21 N         142.8267  136.7464  155.5581 N.3     1  UNL1       -0.2688
     22 C         143.7797  137.8948  155.4068 C.3     1  UNL1        0.0741
     23 C         143.7735  139.0115  156.4084 C.3     1  UNL1        0.0369
     24 C         142.8328  135.6298  154.5566 C.3     1  UNL1        0.0992
     25 C         142.7396  134.2062  155.0199 C.ar    1  UNL1       -0.0029
     26 C         141.6004  133.3426  154.5656 C.ar    1  UNL1        0.0004
     27 C         141.5072  131.9191  155.0289 C.ar    1  UNL1        0.0399
     28 C         142.5532  131.3590  155.9466 C.ar    1  UNL1        0.1764
     29 C         143.6924  132.2225  156.4009 C.ar    1  UNL1        0.1762
     30 C         143.7856  133.6461  155.9376 C.ar    1  UNL1        0.0373
     31 O         144.5677  131.4002  157.2997 O.3     1  UNL1       -0.4346
     32 C         143.9694  130.0284  157.4008 C.3     1  UNL1        0.4294
     33 O         142.7244  130.0030  156.5645 O.3     1  UNL1       -0.4346
@<TRIPOS>BOND
     1     1     2    2
     2     2     3   am
     3     3    18    1
     4    18    19    1
     5    19    20    1
     6    20    21    1
     7    21    24    1
     8    24    25    1
     9    25    26   ar
    10    26    27   ar
    11    27    28   ar
    12    28    29   ar
    13    29    30   ar
    14    29    31    1
    15    31    32    1
    16    32    33    1
    17    21    22    1
    18    22    23    1
    19     2     5    1
    20     5     6   ar
    21     6     7   ar
    22     7     8    2
    23     7     9   ar
    24     9    10   ar
    25    10    11   ar
    26    11    12   ar
    27    12    13    1
    28    12    14   ar
    29    14    15   ar
    30    15    16   ar
    31    23    18    1
    32    16     5   ar
    33    30    25   ar
    34    15     9   ar
    35    33    28    1
    36     3     4    1
    37    13    17    1
@<TRIPOS>MOLECULE
*****
 33 37 0 0 0
SMALL
GASTEIGER

@<TRIPOS>ATOM
      1 O         142.6248  141.4174  162.8932 O.2     1  UNL1       -0.2668
      2 C         141.9351  140.4314  163.7888 C.2     1  UNL1        0.2806
      3 N         141.4102  139.1447  163.2241 N.am    1  UNL1       -0.2999
      4 H         140.9576  138.4975  163.8119 H       1  UNL1        0.1498
      5 C         141.7702  140.7321  165.2491 C.ar    1  UNL1        0.2014
      6 C         142.7898  141.5700  165.9620 C.ar    1  UNL1        0.0843
      7 C         142.6250  141.8707  167.4223 C.ar    1  UNL1        0.2018
      8 O         143.6446  142.7087  168.1352 O.2     1  UNL1       -0.2864
      9 C         141.4406  141.3334  168.1697 C.ar    1  UNL1        0.0738
     10 C         141.2758  141.6341  169.6300 C.ar    1  UNL1        0.0093
     11 C         140.0914  141.0968  170.3773 C.ar    1  UNL1        0.0369
     12 C         139.0718  140.2589  169.6643 C.ar    1  UNL1        0.1367
     13 O         137.8874  139.7216  170.4117 O.3     1  UNL1       -0.5054
     14 C         139.2366  139.9582  168.2041 C.ar    1  UNL1        0.0742
     15 C         140.4210  140.4955  167.4568 C.ar    1  UNL1        0.1515
     16 O         140.5859  140.1948  165.9964 O.2     1  UNL1       -0.4486
     17 H         137.7845  139.9094  171.3239 H       1  UNL1        0.2922
     18 C         141.5750  138.8440  161.7638 C.3     1  UNL1        0.0747
     19 C         142.7940  138.1152  161.2811 C.3     1  UNL1        0.0369
     20 C         142.9588  137.8145  159.8208 C.3     1  UNL1        0.0741
     21 N         141.9046  138.2426  158.8433 N.3     1  UNL1       -0.2688
     22 C         140.6857  138.9713  159.3260 C.3     1  UNL1        0.0741
     23 C         140.5209  139.2720  160.7864 C.3     1  UNL1        0.0369
     24 C         142.0694  137.9419  157.3830 C.3     1  UNL1        0.0992
     25 C         142.1426  136.5190  156.9138 C.ar    1  UNL1       -0.0029
     26 C         141.2499  136.0484  155.8040 C.ar    1  UNL1        0.0004
     27 C         141.3230  134.6256  155.3349 C.ar    1  UNL1        0.0399
     28 C         142.2888  133.6733  155.9755 C.ar    1  UNL1        0.1764
     29 C         143.1814  134.1439  157.0853 C.ar    1  UNL1        0.1762
     30 C         143.1083  135.5667  157.5545 C.ar    1  UNL1        0.0373
     31 O         144.0278  132.9851  157.5225 O.3     1  UNL1       -0.4346
     32 C         143.6581  131.7984  156.6828 C.3     1  UNL1        0.4294
     33 O         142.5834  132.2237  155.7268 O.3     1  UNL1       -0.4346
@<TRIPOS>BOND
     1     1     2    2
     2     2     3   am
     3     3    18    1
     4    18    19    1
     5    19    20    1
     6    20    21    1
     7    21    24    1
     8    24    25    1
     9    25    26   ar
    10    26    27   ar
    11    27    28   ar
    12    28    29   ar
    13    29    30   ar
    14    29    31    1
    15    31    32    1
    16    32    33    1
    17    21    22    1
    18    22    23    1
    19     2     5    1
    20     5     6   ar
    21     6     7   ar
    22     7     8    2
    23     7     9   ar
    24     9    10   ar
    25    10    11   ar
    26    11    12   ar
    27    12    13    1
    28    12    14   ar
    29    14    15   ar
    30    15    16   ar
    31    23    18    1
    32    16     5   ar
    33    30    25   ar
    34    15     9   ar
    35    33    28    1
    36     3     4    1
    37    13    17    1
@<TRIPOS>MOLECULE
*****
 33 37 0 0 0
SMALL
GASTEIGER

@<TRIPOS>ATOM
      1 O         140.8952  141.9873  163.2769 O.2     1  UNL1       -0.2668
      2 C         140.3060  140.8886  164.1109 C.2     1  UNL1        0.2806
      3 N         139.5112  139.7961  163.4591 N.am    1  UNL1       -0.2999
      4 H         139.1244  139.0750  164.0065 H       1  UNL1        0.1498
      5 C         140.5115  140.8822  165.5968 C.ar    1  UNL1        0.2014
      6 C         139.5204  140.1943  166.4881 C.ar    1  UNL1        0.0843
      7 C         139.7258  140.1880  167.9739 C.ar    1  UNL1        0.2018
      8 O         138.7347  139.5000  168.8652 O.2     1  UNL1       -0.2864
      9 C         140.9225  140.8696  168.5685 C.ar    1  UNL1        0.0738
     10 C         141.1279  140.8632  170.0543 C.ar    1  UNL1        0.0093
     11 C         142.3246  141.5448  170.6489 C.ar    1  UNL1        0.0369
     12 C         143.3157  142.2328  169.7576 C.ar    1  UNL1        0.1367
     13 O         144.5124  142.9144  170.3522 O.3     1  UNL1       -0.5054
     14 C         143.1102  142.2391  168.2718 C.ar    1  UNL1        0.0742
     15 C         141.9136  141.5575  167.6772 C.ar    1  UNL1        0.1515
     16 O         141.7081  141.5638  166.1913 O.2     1  UNL1       -0.4486
     17 H         144.6407  142.9104  171.2803 H       1  UNL1        0.2922
     18 C         139.3056  139.8024  161.9733 C.3     1  UNL1        0.0747
     19 C         140.4251  139.3999  161.0596 C.3     1  UNL1        0.0369
     20 C         140.2195  139.4062  159.5738 C.3     1  UNL1        0.0741
     21 N         138.8945  139.8150  159.0016 N.3     1  UNL1       -0.2688
     22 C         137.7751  140.2175  159.9153 C.3     1  UNL1        0.0741
     23 C         137.9807  140.2112  161.4012 C.3     1  UNL1        0.0369
     24 C         138.6890  139.8212  157.5158 C.3     1  UNL1        0.0992
     25 C         138.1911  141.0604  156.8327 C.ar    1  UNL1       -0.0029
     26 C         136.8464  141.0617  156.1682 C.ar    1  UNL1        0.0004
     27 C         136.3486  142.3009  155.4851 C.ar    1  UNL1        0.0399
     28 C         137.1955  143.5388  155.4666 C.ar    1  UNL1        0.1764
     29 C         138.5402  143.5375  156.1311 C.ar    1  UNL1        0.1762
     30 C         139.0380  142.2983  156.8142 C.ar    1  UNL1        0.0373
     31 O         139.1475  144.8973  155.9512 O.3     1  UNL1       -0.4346
     32 C         138.1780  145.7389  155.1755 C.3     1  UNL1        0.4294
     33 O         136.9716  144.8993  154.8760 O.3     1  UNL1       -0.4346
@<TRIPOS>BOND
     1     1     2    2
     2     2     3   am
     3     3    18    1
     4    18    19    1
     5    19    20    1
     6    20    21    1
     7    21    24    1
     8    24    25    1
     9    25    26   ar
    10    26    27   ar
    11    27    28   ar
    12    28    29   ar
    13    29    30   ar
    14    29    31    1
    15    31    32    1
    16    32    33    1
    17    21    22    1
    18    22    23    1
    19     2     5    1
    20     5     6   ar
    21     6     7   ar
    22     7     8    2
    23     7     9   ar
    24     9    10   ar
    25    10    11   ar
    26    11    12   ar
    27    12    13    1
    28    12    14   ar
    29    14    15   ar
    30    15    16   ar
    31    23    18    1
    32    16     5   ar
    33    30    25   ar
    34    15     9   ar
    35    33    28    1
    36     3     4    1
    37    13    17    1
