@<TRIPOS>MOLECULE
*****
 31 34 0 0 0
SMALL
GASTEIGER

@<TRIPOS>ATOM
      1 C         140.9533  140.3158  166.6244 C.ar    1  UNL1       -0.0086
      2 C         139.6652  139.6070  166.3276 C.ar    1  UNL1        0.0725
      3 C         138.6697  139.3698  167.4243 C.ar    1  UNL1        0.3454
      4 O         137.3814  138.6609  167.1274 O.2     1  UNL1       -0.2445
      5 O         138.9623  139.8415  168.8178 O.2     1  UNL1       -0.4210
      6 C         140.2505  140.5504  169.1147 C.ar    1  UNL1        0.1514
      7 C         140.5431  141.0220  170.5081 C.ar    1  UNL1        0.0742
      8 C         141.8313  141.7309  170.8050 C.ar    1  UNL1        0.1367
      9 O         142.1240  142.2026  172.1985 O.3     1  UNL1       -0.5054
     10 C         142.8268  141.9680  169.7083 C.ar    1  UNL1        0.0368
     11 C         142.5342  141.4964  168.3148 C.ar    1  UNL1        0.0058
     12 C         141.2460  140.7875  168.0180 C.ar    1  UNL1        0.0314
     13 H         141.5021  142.0544  172.8836 H       1  UNL1        0.2922
     14 C         139.3725  139.1353  164.9341 C.ar    1  UNL1        0.0059
     15 C         138.4468  139.9226  164.0547 C.ar    1  UNL1        0.0002
     16 C         138.1541  139.4509  162.6612 C.ar    1  UNL1        0.0000
     17 C         138.7871  138.1920  162.1471 C.ar    1  UNL1        0.0000
     18 C         139.7127  137.4047  163.0265 C.ar    1  UNL1        0.0000
     19 C         140.0054  137.8763  164.4200 C.ar    1  UNL1        0.0002
     20 C         141.9489  140.5530  165.5278 C.3     1  UNL1        0.0529
     21 C         141.0661  143.5613  162.2997 C.ar    1  UNL1        0.0000
     22 C         140.8906  143.9353  163.7416 C.ar    1  UNL1       -0.0003
     23 C         141.1849  142.9325  164.8176 C.ar    1  UNL1       -0.0039
     24 C         141.6546  141.5558  164.4517 C.ar    1  UNL1       -0.0178
     25 C         141.8301  141.1818  163.0097 C.ar    1  UNL1       -0.0039
     26 C         141.5358  142.1846  161.9337 C.ar    1  UNL1       -0.0003
     27 C         141.5282  144.5188  159.9291 C.2     1  UNL1        0.0151
     28 C         140.7718  144.5641  161.2236 C.2     1  UNL1        0.0012
     29 O         142.3512  146.0790  158.0215 O.co2   1  UNL1       -0.5446
     30 C         141.2340  145.5215  158.8530 C.2     1  UNL1        0.0729
     31 O         139.8227  145.9668  158.6084 O.co2   1  UNL1       -0.5446
@<TRIPOS>UNITY_ATOM_ATTR
29 1
charge -1
@<TRIPOS>BOND
     1    29    30   ar
     2    30    31   ar
     3    30    27    1
     4    27    28    2
     5    28    21    1
     6    21    22   ar
     7    22    23   ar
     8    23    24   ar
     9    24    20    1
    10    20     1    1
    11     1     2   ar
    12     2    14    1
    13    14    15   ar
    14    15    16   ar
    15    16    17   ar
    16    17    18   ar
    17    18    19   ar
    18     2     3   ar
    19     3     4    2
    20     3     5   ar
    21     5     6   ar
    22     6     7   ar
    23     7     8   ar
    24     8     9    1
    25     8    10   ar
    26    10    11   ar
    27    11    12   ar
    28    24    25   ar
    29    25    26   ar
    30    26    21   ar
    31    12     1   ar
    32    19    14   ar
    33    12     6   ar
    34     9    13    1
@<TRIPOS>MOLECULE
*****
 31 34 0 0 0
SMALL
GASTEIGER

@<TRIPOS>ATOM
      1 C         140.6077  141.0097  166.4367 C.ar    1  UNL1       -0.0086
      2 C         141.2372  139.7931  165.8255 C.ar    1  UNL1        0.0725
      3 C         142.4457  139.1736  166.4625 C.ar    1  UNL1        0.3454
      4 O         143.0751  137.9570  165.8512 O.2     1  UNL1       -0.2445
      5 O         143.0247  139.7708  167.7107 O.2     1  UNL1       -0.4210
      6 C         142.3953  140.9875  168.3219 C.ar    1  UNL1        0.1514
      7 C         142.9744  141.5847  169.5701 C.ar    1  UNL1        0.0742
      8 C         142.3449  142.8013  170.1813 C.ar    1  UNL1        0.1367
      9 O         142.9240  143.3985  171.4296 O.3     1  UNL1       -0.5054
     10 C         141.1364  143.4207  169.5443 C.ar    1  UNL1        0.0368
     11 C         140.5574  142.8236  168.2961 C.ar    1  UNL1        0.0058
     12 C         141.1868  141.6070  167.6849 C.ar    1  UNL1        0.0314
     13 H         143.6789  143.0116  171.8275 H       1  UNL1        0.2922
     14 C         140.6581  139.1959  164.5772 C.ar    1  UNL1        0.0059
     15 C         141.1994  139.5917  163.2355 C.ar    1  UNL1        0.0002
     16 C         140.6204  138.9945  161.9873 C.ar    1  UNL1        0.0000
     17 C         139.5001  138.0015  162.0808 C.ar    1  UNL1        0.0000
     18 C         138.9588  137.6057  163.4225 C.ar    1  UNL1        0.0000
     19 C         139.5378  138.2029  164.6708 C.ar    1  UNL1        0.0002
     20 C         139.3992  141.6292  165.7997 C.3     1  UNL1        0.0529
     21 C         139.8610  144.2375  162.1619 C.ar    1  UNL1        0.0000
     22 C         138.8028  143.1749  162.1934 C.ar    1  UNL1       -0.0003
     23 C         138.6489  142.3055  163.4060 C.ar    1  UNL1       -0.0039
     24 C         139.5532  142.4987  164.5870 C.ar    1  UNL1       -0.0178
     25 C         140.6114  143.5612  164.5555 C.ar    1  UNL1       -0.0039
     26 C         140.7653  144.4307  163.3430 C.ar    1  UNL1       -0.0003
     27 C         141.0121  144.7452  159.8887 C.2     1  UNL1        0.0151
     28 C         140.0150  145.1070  160.9493 C.2     1  UNL1        0.0012
     29 O         142.5343  145.9291  158.1476 O.co2   1  UNL1       -0.5446
     30 C         141.1661  145.6146  158.6762 C.2     1  UNL1        0.0729
     31 O         139.9520  146.1696  157.9921 O.co2   1  UNL1       -0.5446
@<TRIPOS>UNITY_ATOM_ATTR
29 1
charge -1
@<TRIPOS>BOND
     1    29    30   ar
     2    30    31   ar
     3    30    27    1
     4    27    28    2
     5    28    21    1
     6    21    22   ar
     7    22    23   ar
     8    23    24   ar
     9    24    20    1
    10    20     1    1
    11     1     2   ar
    12     2    14    1
    13    14    15   ar
    14    15    16   ar
    15    16    17   ar
    16    17    18   ar
    17    18    19   ar
    18     2     3   ar
    19     3     4    2
    20     3     5   ar
    21     5     6   ar
    22     6     7   ar
    23     7     8   ar
    24     8     9    1
    25     8    10   ar
    26    10    11   ar
    27    11    12   ar
    28    24    25   ar
    29    25    26   ar
    30    26    21   ar
    31    12     1   ar
    32    19    14   ar
    33    12     6   ar
    34     9    13    1
@<TRIPOS>MOLECULE
*****
 31 34 0 0 0
SMALL
GASTEIGER

@<TRIPOS>ATOM
      1 C         141.4185  142.7145  161.4406 C.ar    1  UNL1       -0.0086
      2 C         140.5286  143.9025  161.6565 C.ar    1  UNL1        0.0725
      3 C         140.5735  145.0570  160.6999 C.ar    1  UNL1        0.3454
      4 O         139.6835  146.2451  160.9159 O.2     1  UNL1       -0.2445
      5 O         141.5083  145.0235  159.5273 O.2     1  UNL1       -0.4210
      6 C         142.3983  143.8355  159.3113 C.ar    1  UNL1        0.1514
      7 C         143.3331  143.8020  158.1387 C.ar    1  UNL1        0.0742
      8 C         144.2230  142.6140  157.9228 C.ar    1  UNL1        0.1367
      9 O         145.1579  142.5804  156.7502 O.3     1  UNL1       -0.5054
     10 C         144.1781  141.4595  158.8794 C.ar    1  UNL1        0.0368
     11 C         143.2433  141.4930  160.0520 C.ar    1  UNL1        0.0058
     12 C         142.3534  142.6810  160.2679 C.ar    1  UNL1        0.0314
     13 H         145.1859  143.3016  156.1526 H       1  UNL1        0.2922
     14 C         139.5937  143.9361  162.8291 C.ar    1  UNL1        0.0059
     15 C         139.9374  144.7533  164.0391 C.ar    1  UNL1        0.0002
     16 C         139.0026  144.7868  165.2117 C.ar    1  UNL1        0.0000
     17 C         137.7241  144.0032  165.1743 C.ar    1  UNL1        0.0000
     18 C         137.3805  143.1860  163.9643 C.ar    1  UNL1        0.0000
     19 C         138.3152  143.1525  162.7917 C.ar    1  UNL1        0.0002
     20 C         141.3736  141.5600  162.3972 C.3     1  UNL1        0.0529
     21 C         142.5933  142.1456  166.6889 C.ar    1  UNL1        0.0000
     22 C         143.4602  142.6728  165.5843 C.ar    1  UNL1       -0.0003
     23 C         143.0537  142.4776  164.1537 C.ar    1  UNL1       -0.0039
     24 C         141.7801  141.7552  163.8278 C.ar    1  UNL1       -0.0178
     25 C         140.9132  141.2280  164.9325 C.ar    1  UNL1       -0.0039
     26 C         141.3197  141.4232  166.3631 C.ar    1  UNL1       -0.0003
     27 C         141.9684  142.6886  169.1516 C.2     1  UNL1        0.0151
     28 C         142.9998  142.3408  168.1196 C.2     1  UNL1        0.0012
     29 O         143.4398  143.8813  170.9299 O.co2   1  UNL1       -0.5446
     30 C         142.3748  142.8838  170.5822 C.2     1  UNL1        0.0729
     31 O         141.7164  142.0815  171.6651 O.co2   1  UNL1       -0.5446
@<TRIPOS>UNITY_ATOM_ATTR
29 1
charge -1
@<TRIPOS>BOND
     1    29    30   ar
     2    30    31   ar
     3    30    27    1
     4    27    28    2
     5    28    21    1
     6    21    22   ar
     7    22    23   ar
     8    23    24   ar
     9    24    20    1
    10    20     1    1
    11     1     2   ar
    12     2    14    1
    13    14    15   ar
    14    15    16   ar
    15    16    17   ar
    16    17    18   ar
    17    18    19   ar
    18     2     3   ar
    19     3     4    2
    20     3     5   ar
    21     5     6   ar
    22     6     7   ar
    23     7     8   ar
    24     8     9    1
    25     8    10   ar
    26    10    11   ar
    27    11    12   ar
    28    24    25   ar
    29    25    26   ar
    30    26    21   ar
    31    12     1   ar
    32    19    14   ar
    33    12     6   ar
    34     9    13    1
@<TRIPOS>MOLECULE
*****
 31 34 0 0 0
SMALL
GASTEIGER

@<TRIPOS>ATOM
      1 C         141.2307  140.9981  162.0413 C.ar    1  UNL1       -0.0086
      2 C         139.7713  140.8471  162.3533 C.ar    1  UNL1        0.0725
      3 C         138.7494  141.5753  161.5315 C.ar    1  UNL1        0.3454
      4 O         137.2899  141.4242  161.8435 O.2     1  UNL1       -0.2445
      5 O         139.1868  142.4545  160.3977 O.2     1  UNL1       -0.4210
      6 C         140.6463  142.6056  160.0857 C.ar    1  UNL1        0.1514
      7 C         141.0837  143.4848  158.9519 C.ar    1  UNL1        0.0742
      8 C         142.5431  143.6359  158.6399 C.ar    1  UNL1        0.1367
      9 O         142.9806  144.5151  157.5061 O.3     1  UNL1       -0.5054
     10 C         143.5650  142.9076  159.4617 C.ar    1  UNL1        0.0368
     11 C         143.1276  142.0284  160.5955 C.ar    1  UNL1        0.0058
     12 C         141.6682  141.8774  160.9075 C.ar    1  UNL1        0.0314
     13 H         142.3423  144.9701  156.9927 H       1  UNL1        0.2922
     14 C         139.3338  139.9678  163.4871 C.ar    1  UNL1        0.0059
     15 C         139.3541  138.4761  163.3304 C.ar    1  UNL1        0.0002
     16 C         138.9167  137.5968  164.4642 C.ar    1  UNL1        0.0000
     17 C         138.4588  138.2092  165.7546 C.ar    1  UNL1        0.0000
     18 C         138.4384  139.7009  165.9113 C.ar    1  UNL1        0.0000
     19 C         138.8759  140.5801  164.7776 C.ar    1  UNL1        0.0002
     20 C         142.2526  140.2699  162.8631 C.3     1  UNL1        0.0529
     21 C         142.9755  141.4743  167.1382 C.ar    1  UNL1        0.0000
     22 C         142.6713  140.0443  166.8032 C.ar    1  UNL1       -0.0003
     23 C         142.4304  139.6428  165.3781 C.ar    1  UNL1       -0.0039
     24 C         142.4936  140.6714  164.2882 C.ar    1  UNL1       -0.0178
     25 C         142.7977  142.1015  164.6233 C.ar    1  UNL1       -0.0039
     26 C         143.0387  142.5029  166.0483 C.ar    1  UNL1       -0.0003
     27 C         142.1258  142.5406  169.3499 C.2     1  UNL1        0.0151
     28 C         143.2165  141.8759  168.5633 C.2     1  UNL1        0.0012
     29 O         141.5913  142.2879  171.8798 O.co2   1  UNL1       -0.5446
     30 C         142.3668  142.9422  170.7749 C.2     1  UNL1        0.0729
     31 O         143.3830  143.9979  171.0950 O.co2   1  UNL1       -0.5446
@<TRIPOS>UNITY_ATOM_ATTR
29 1
charge -1
@<TRIPOS>BOND
     1    29    30   ar
     2    30    31   ar
     3    30    27    1
     4    27    28    2
     5    28    21    1
     6    21    22   ar
     7    22    23   ar
     8    23    24   ar
     9    24    20    1
    10    20     1    1
    11     1     2   ar
    12     2    14    1
    13    14    15   ar
    14    15    16   ar
    15    16    17   ar
    16    17    18   ar
    17    18    19   ar
    18     2     3   ar
    19     3     4    2
    20     3     5   ar
    21     5     6   ar
    22     6     7   ar
    23     7     8   ar
    24     8     9    1
    25     8    10   ar
    26    10    11   ar
    27    11    12   ar
    28    24    25   ar
    29    25    26   ar
    30    26    21   ar
    31    12     1   ar
    32    19    14   ar
    33    12     6   ar
    34     9    13    1
@<TRIPOS>MOLECULE
*****
 31 34 0 0 0
SMALL
GASTEIGER

@<TRIPOS>ATOM
      1 C         140.9986  139.8011  166.3151 C.ar    1  UNL1       -0.0086
      2 C         142.2172  139.1454  165.7363 C.ar    1  UNL1        0.0725
      3 C         143.3254  138.6918  166.6397 C.ar    1  UNL1        0.3454
      4 O         144.5440  138.0361  166.0608 O.2     1  UNL1       -0.2445
      5 O         143.2151  138.8940  168.1218 O.2     1  UNL1       -0.4210
      6 C         141.9964  139.5497  168.7007 C.ar    1  UNL1        0.1514
      7 C         141.8861  139.7519  170.1829 C.ar    1  UNL1        0.0742
      8 C         140.6675  140.4076  170.7617 C.ar    1  UNL1        0.1367
      9 O         140.5571  140.6098  172.2439 O.3     1  UNL1       -0.5054
     10 C         139.5593  140.8611  169.8583 C.ar    1  UNL1        0.0368
     11 C         139.6696  140.6590  168.3761 C.ar    1  UNL1        0.0058
     12 C         140.8882  140.0033  167.7973 C.ar    1  UNL1        0.0314
     13 H         141.2494  140.3264  172.8083 H       1  UNL1        0.2922
     14 C         142.3276  138.9432  164.2540 C.ar    1  UNL1        0.0059
     15 C         141.5697  137.8319  163.5902 C.ar    1  UNL1        0.0002
     16 C         141.6801  137.6296  162.1080 C.ar    1  UNL1        0.0000
     17 C         142.5483  138.5387  161.2897 C.ar    1  UNL1        0.0000
     18 C         143.3061  139.6501  161.9535 C.ar    1  UNL1        0.0000
     19 C         143.1958  139.8523  163.4357 C.ar    1  UNL1        0.0002
     20 C         139.8904  140.2546  165.4117 C.3     1  UNL1        0.0529
     21 C         140.6996  143.3284  162.2263 C.ar    1  UNL1        0.0000
     22 C         139.9444  142.0777  161.8869 C.ar    1  UNL1       -0.0003
     23 C         139.6746  141.0531  162.9487 C.ar    1  UNL1       -0.0039
     24 C         140.1601  141.2793  164.3499 C.ar    1  UNL1       -0.0178
     25 C         140.9154  142.5300  164.6892 C.ar    1  UNL1       -0.0039
     26 C         141.1851  143.5546  163.6274 C.ar    1  UNL1       -0.0003
     27 C         140.6621  144.0444  159.7291 C.2     1  UNL1        0.0151
     28 C         140.9694  144.3531  161.1644 C.2     1  UNL1        0.0012
     29 O         139.8992  145.3494  157.6160 O.co2   1  UNL1       -0.5446
     30 C         140.9318  145.0690  158.6673 C.2     1  UNL1        0.0729
     31 O         142.2342  145.8131  158.6566 O.co2   1  UNL1       -0.5446
@<TRIPOS>UNITY_ATOM_ATTR
29 1
charge -1
@<TRIPOS>BOND
     1    29    30   ar
     2    30    31   ar
     3    30    27    1
     4    27    28    2
     5    28    21    1
     6    21    22   ar
     7    22    23   ar
     8    23    24   ar
     9    24    20    1
    10    20     1    1
    11     1     2   ar
    12     2    14    1
    13    14    15   ar
    14    15    16   ar
    15    16    17   ar
    16    17    18   ar
    17    18    19   ar
    18     2     3   ar
    19     3     4    2
    20     3     5   ar
    21     5     6   ar
    22     6     7   ar
    23     7     8   ar
    24     8     9    1
    25     8    10   ar
    26    10    11   ar
    27    11    12   ar
    28    24    25   ar
    29    25    26   ar
    30    26    21   ar
    31    12     1   ar
    32    19    14   ar
    33    12     6   ar
    34     9    13    1
@<TRIPOS>MOLECULE
*****
 31 34 0 0 0
SMALL
GASTEIGER

@<TRIPOS>ATOM
      1 C         142.2288  142.4273  161.8760 C.ar    1  UNL1       -0.0086
      2 C         142.3091  140.9296  161.8618 C.ar    1  UNL1        0.0725
      3 C         141.8035  140.1625  160.6761 C.ar    1  UNL1        0.3454
      4 O         141.8838  138.6647  160.6620 O.2     1  UNL1       -0.2445
      5 O         141.2175  140.8932  159.5045 O.2     1  UNL1       -0.4210
      6 C         141.1371  142.3911  159.5186 C.ar    1  UNL1        0.1514
      7 C         140.5512  143.1218  158.3470 C.ar    1  UNL1        0.0742
      8 C         140.4709  144.6195  158.3611 C.ar    1  UNL1        0.1367
      9 O         139.8849  145.3503  157.1895 O.3     1  UNL1       -0.5054
     10 C         140.9765  145.3866  159.5469 C.ar    1  UNL1        0.0368
     11 C         141.5624  144.6559  160.7185 C.ar    1  UNL1        0.0058
     12 C         141.6428  143.1581  160.7043 C.ar    1  UNL1        0.0314
     13 H         139.5690  144.8712  156.4488 H       1  UNL1        0.2922
     14 C         142.8951  140.1988  163.0334 C.ar    1  UNL1        0.0059
     15 C         144.3835  140.1320  163.2076 C.ar    1  UNL1        0.0002
     16 C         144.9695  139.4013  164.3792 C.ar    1  UNL1        0.0000
     17 C         144.0671  138.7373  165.3765 C.ar    1  UNL1        0.0000
     18 C         142.5787  138.8041  165.2024 C.ar    1  UNL1        0.0000
     19 C         141.9927  139.5348  164.0308 C.ar    1  UNL1        0.0002
     20 C         142.7344  143.1944  163.0617 C.3     1  UNL1        0.0529
     21 C         140.9758  142.4535  167.1370 C.ar    1  UNL1        0.0000
     22 C         140.0766  142.7638  165.9773 C.ar    1  UNL1       -0.0003
     23 C         140.6628  143.0107  164.6189 C.ar    1  UNL1       -0.0039
     24 C         142.1482  142.9474  164.4202 C.ar    1  UNL1       -0.0178
     25 C         143.0475  142.6371  165.5799 C.ar    1  UNL1       -0.0039
     26 C         142.4613  142.3901  166.9384 C.ar    1  UNL1       -0.0003
     27 C         140.7034  143.1382  169.6284 C.2     1  UNL1        0.0151
     28 C         140.3896  142.2065  168.4955 C.2     1  UNL1        0.0012
     29 O         138.8489  143.5814  171.3932 O.co2   1  UNL1       -0.5446
     30 C         140.1173  142.8913  170.9869 C.2     1  UNL1        0.0729
     31 O         140.7995  141.9543  171.9391 O.co2   1  UNL1       -0.5446
@<TRIPOS>UNITY_ATOM_ATTR
29 1
charge -1
@<TRIPOS>BOND
     1    29    30   ar
     2    30    31   ar
     3    30    27    1
     4    27    28    2
     5    28    21    1
     6    21    22   ar
     7    22    23   ar
     8    23    24   ar
     9    24    20    1
    10    20     1    1
    11     1     2   ar
    12     2    14    1
    13    14    15   ar
    14    15    16   ar
    15    16    17   ar
    16    17    18   ar
    17    18    19   ar
    18     2     3   ar
    19     3     4    2
    20     3     5   ar
    21     5     6   ar
    22     6     7   ar
    23     7     8   ar
    24     8     9    1
    25     8    10   ar
    26    10    11   ar
    27    11    12   ar
    28    24    25   ar
    29    25    26   ar
    30    26    21   ar
    31    12     1   ar
    32    19    14   ar
    33    12     6   ar
    34     9    13    1
@<TRIPOS>MOLECULE
*****
 31 34 0 0 0
SMALL
GASTEIGER

@<TRIPOS>ATOM
      1 C         141.0651  141.7107  161.1824 C.ar    1  UNL1       -0.0086
      2 C         141.1502  143.0675  161.8161 C.ar    1  UNL1        0.0725
      3 C         142.2612  144.0026  161.4401 C.ar    1  UNL1        0.3454
      4 O         142.3462  145.3595  162.0739 O.2     1  UNL1       -0.2445
      5 O         143.2871  143.5807  160.4304 O.2     1  UNL1       -0.4210
      6 C         143.2021  142.2238  159.7967 C.ar    1  UNL1        0.1514
      7 C         144.2280  141.8019  158.7870 C.ar    1  UNL1        0.0742
      8 C         144.1429  140.4451  158.1533 C.ar    1  UNL1        0.1367
      9 O         145.1689  140.0231  157.1436 O.3     1  UNL1       -0.5054
     10 C         143.0319  139.5100  158.5293 C.ar    1  UNL1        0.0368
     11 C         142.0059  139.9319  159.5390 C.ar    1  UNL1        0.0058
     12 C         142.0910  141.2888  160.1727 C.ar    1  UNL1        0.0314
     13 H         145.8629  140.6072  156.9088 H       1  UNL1        0.2922
     14 C         140.1242  143.4895  162.8258 C.ar    1  UNL1        0.0059
     15 C         140.4691  143.5012  164.2855 C.ar    1  UNL1        0.0002
     16 C         139.4432  143.9230  165.2952 C.ar    1  UNL1        0.0000
     17 C         138.0724  144.3332  164.8452 C.ar    1  UNL1        0.0000
     18 C         137.7275  144.3215  163.3854 C.ar    1  UNL1        0.0000
     19 C         138.7534  143.8996  162.3757 C.ar    1  UNL1        0.0002
     20 C         139.9540  140.7757  161.5583 C.3     1  UNL1        0.0529
     21 C         139.2483  139.7430  165.8810 C.ar    1  UNL1        0.0000
     22 C         140.6296  139.6503  165.3037 C.ar    1  UNL1       -0.0003
     23 C         140.8648  139.9945  163.8628 C.ar    1  UNL1       -0.0039
     24 C         139.7188  140.4314  162.9993 C.ar    1  UNL1       -0.0178
     25 C         138.3375  140.5242  163.5767 C.ar    1  UNL1       -0.0039
     26 C         138.1023  140.1800  165.0175 C.ar    1  UNL1       -0.0003
     27 C         139.5332  140.2995  168.4028 C.2     1  UNL1        0.0151
     28 C         139.0130  139.3988  167.3220 C.2     1  UNL1        0.0012
     29 O         137.9070  139.9852  170.4045 O.co2   1  UNL1       -0.5446
     30 C         139.2979  139.9554  169.8437 C.2     1  UNL1        0.0729
     31 O         140.4536  139.5814  170.7238 O.co2   1  UNL1       -0.5446
@<TRIPOS>UNITY_ATOM_ATTR
29 1
charge -1
@<TRIPOS>BOND
     1    29    30   ar
     2    30    31   ar
     3    30    27    1
     4    27    28    2
     5    28    21    1
     6    21    22   ar
     7    22    23   ar
     8    23    24   ar
     9    24    20    1
    10    20     1    1
    11     1     2   ar
    12     2    14    1
    13    14    15   ar
    14    15    16   ar
    15    16    17   ar
    16    17    18   ar
    17    18    19   ar
    18     2     3   ar
    19     3     4    2
    20     3     5   ar
    21     5     6   ar
    22     6     7   ar
    23     7     8   ar
    24     8     9    1
    25     8    10   ar
    26    10    11   ar
    27    11    12   ar
    28    24    25   ar
    29    25    26   ar
    30    26    21   ar
    31    12     1   ar
    32    19    14   ar
    33    12     6   ar
    34     9    13    1
@<TRIPOS>MOLECULE
*****
 31 34 0 0 0
SMALL
GASTEIGER

@<TRIPOS>ATOM
      1 C         140.8396  142.1964  161.5710 C.ar    1  UNL1       -0.0086
      2 C         142.3347  142.2248  161.6885 C.ar    1  UNL1        0.0725
      3 C         143.1824  141.5756  160.6350 C.ar    1  UNL1        0.3454
      4 O         144.6775  141.6040  160.7526 O.2     1  UNL1       -0.2445
      5 O         142.5349  140.8980  159.4638 O.2     1  UNL1       -0.4210
      6 C         141.0398  140.8695  159.3462 C.ar    1  UNL1        0.1514
      7 C         140.3923  140.1919  158.1750 C.ar    1  UNL1        0.0742
      8 C         138.8973  140.1635  158.0575 C.ar    1  UNL1        0.1367
      9 O         138.2498  139.4859  156.8863 O.3     1  UNL1       -0.5054
     10 C         138.0496  140.8127  159.1110 C.ar    1  UNL1        0.0368
     11 C         138.6970  141.4903  160.2822 C.ar    1  UNL1        0.0058
     12 C         140.1921  141.5187  160.3998 C.ar    1  UNL1        0.0314
     13 H         138.7793  139.0803  156.2281 H       1  UNL1        0.2922
     14 C         142.9822  142.9024  162.8597 C.ar    1  UNL1        0.0059
     15 C         143.1257  144.3955  162.8771 C.ar    1  UNL1        0.0002
     16 C         143.7732  145.0731  164.0482 C.ar    1  UNL1        0.0000
     17 C         144.2771  144.2577  165.2019 C.ar    1  UNL1        0.0000
     18 C         144.1336  142.7647  165.1846 C.ar    1  UNL1        0.0000
     19 C         143.4862  142.0871  164.0135 C.ar    1  UNL1        0.0002
     20 C         139.9920  142.8456  162.6245 C.3     1  UNL1        0.0529
     21 C         140.0157  141.2479  166.8313 C.ar    1  UNL1        0.0000
     22 C         139.8101  140.3141  165.6756 C.ar    1  UNL1       -0.0003
     23 C         139.8022  140.8467  164.2733 C.ar    1  UNL1       -0.0039
     24 C         139.9999  142.3130  164.0268 C.ar    1  UNL1       -0.0178
     25 C         140.2054  143.2468  165.1826 C.ar    1  UNL1       -0.0039
     26 C         140.2133  142.7142  166.5848 C.ar    1  UNL1       -0.0003
     27 C         140.1536  141.6580  169.3931 C.2     1  UNL1        0.0151
     28 C         140.0236  140.7153  168.2336 C.2     1  UNL1        0.0012
     29 O         140.6504  141.9869  171.9220 O.co2   1  UNL1       -0.5446
     30 C         140.1615  141.1255  170.7954 C.2     1  UNL1        0.0729
     31 O         139.6806  139.7317  171.0711 O.co2   1  UNL1       -0.5446
@<TRIPOS>UNITY_ATOM_ATTR
29 1
charge -1
@<TRIPOS>BOND
     1    29    30   ar
     2    30    31   ar
     3    30    27    1
     4    27    28    2
     5    28    21    1
     6    21    22   ar
     7    22    23   ar
     8    23    24   ar
     9    24    20    1
    10    20     1    1
    11     1     2   ar
    12     2    14    1
    13    14    15   ar
    14    15    16   ar
    15    16    17   ar
    16    17    18   ar
    17    18    19   ar
    18     2     3   ar
    19     3     4    2
    20     3     5   ar
    21     5     6   ar
    22     6     7   ar
    23     7     8   ar
    24     8     9    1
    25     8    10   ar
    26    10    11   ar
    27    11    12   ar
    28    24    25   ar
    29    25    26   ar
    30    26    21   ar
    31    12     1   ar
    32    19    14   ar
    33    12     6   ar
    34     9    13    1
@<TRIPOS>MOLECULE
*****
 31 34 0 0 0
SMALL
GASTEIGER

@<TRIPOS>ATOM
      1 C         141.9455  140.2897  166.7602 C.ar    1  UNL1       -0.0086
      2 C         142.8817  141.1097  165.9229 C.ar    1  UNL1        0.0725
      3 C         143.4371  142.3956  166.4595 C.ar    1  UNL1        0.3454
      4 O         144.3732  143.2156  165.6220 O.2     1  UNL1       -0.2445
      5 O         143.0563  142.8616  167.8334 O.2     1  UNL1       -0.4210
      6 C         142.1201  142.0416  168.6709 C.ar    1  UNL1        0.1514
      7 C         141.7393  142.5076  170.0449 C.ar    1  UNL1        0.0742
      8 C         140.8032  141.6876  170.8822 C.ar    1  UNL1        0.1367
      9 O         140.4224  142.1536  172.2563 O.3     1  UNL1       -0.5054
     10 C         140.2478  140.4017  170.3456 C.ar    1  UNL1        0.0368
     11 C         140.6286  139.9357  168.9717 C.ar    1  UNL1        0.0058
     12 C         141.5647  140.7557  168.1343 C.ar    1  UNL1        0.0314
     13 H         140.7693  142.9568  172.5915 H       1  UNL1        0.2922
     14 C         143.2625  140.6438  164.5488 C.ar    1  UNL1        0.0059
     15 C         144.2867  139.5608  164.3812 C.ar    1  UNL1        0.0002
     16 C         144.6675  139.0948  163.0072 C.ar    1  UNL1        0.0000
     17 C         144.0241  139.7119  161.8009 C.ar    1  UNL1        0.0000
     18 C         142.9999  140.7948  161.9685 C.ar    1  UNL1        0.0000
     19 C         142.6191  141.2608  163.3425 C.ar    1  UNL1        0.0002
     20 C         141.3902  139.0038  166.2236 C.3     1  UNL1        0.0529
     21 C         139.3750  138.9284  162.2008 C.ar    1  UNL1        0.0000
     22 C         138.9881  139.9645  163.2141 C.ar    1  UNL1       -0.0003
     23 C         139.6598  139.9896  164.5550 C.ar    1  UNL1       -0.0039
     24 C         140.7184  138.9787  164.8826 C.ar    1  UNL1       -0.0178
     25 C         141.1053  137.9426  163.8693 C.ar    1  UNL1       -0.0039
     26 C         140.4336  137.9175  162.5284 C.ar    1  UNL1       -0.0003
     27 C         139.2669  139.7040  159.7235 C.2     1  UNL1        0.0151
     28 C         138.7032  138.9033  160.8598 C.2     1  UNL1        0.0012
     29 O         139.1536  138.8290  157.2798 O.co2   1  UNL1       -0.5446
     30 C         138.5952  139.6788  158.3826 C.2     1  UNL1        0.0729
     31 O         137.3651  140.5035  158.1443 O.co2   1  UNL1       -0.5446
@<TRIPOS>UNITY_ATOM_ATTR
29 1
charge -1
@<TRIPOS>BOND
     1    29    30   ar
     2    30    31   ar
     3    30    27    1
     4    27    28    2
     5    28    21    1
     6    21    22   ar
     7    22    23   ar
     8    23    24   ar
     9    24    20    1
    10    20     1    1
    11     1     2   ar
    12     2    14    1
    13    14    15   ar
    14    15    16   ar
    15    16    17   ar
    16    17    18   ar
    17    18    19   ar
    18     2     3   ar
    19     3     4    2
    20     3     5   ar
    21     5     6   ar
    22     6     7   ar
    23     7     8   ar
    24     8     9    1
    25     8    10   ar
    26    10    11   ar
    27    11    12   ar
    28    24    25   ar
    29    25    26   ar
    30    26    21   ar
    31    12     1   ar
    32    19    14   ar
    33    12     6   ar
    34     9    13    1
