@<TRIPOS>MOLECULE
*****
 42 46 0 0 0
SMALL
GASTEIGER

@<TRIPOS>ATOM
      1 C         142.4392  140.9708  168.6311 C.ar    1  UNL1        0.2167
      2 N         142.9962  139.5967  168.4043 N.ar    1  UNL1       -0.2182
      3 C         143.1723  139.0799  167.0072 C.ar    1  UNL1        0.0638
      4 C         143.7294  137.7057  166.7804 C.3     1  UNL1        0.0522
      5 C         142.7913  139.9373  165.8369 C.ar    1  UNL1        0.0344
      6 C         142.9674  139.4206  164.4397 C.ar    1  UNL1        0.0029
      7 C         142.5864  140.2780  163.2694 C.ar    1  UNL1        0.0047
      8 C         142.0294  141.6522  163.4962 C.ar    1  UNL1        0.0385
      9 C         141.8533  142.1689  164.8933 C.ar    1  UNL1        0.1560
     10 C         142.2343  141.3114  166.0637 C.ar    1  UNL1        0.1191
     11 N         142.0582  141.8282  167.4608 N.ar    1  UNL1       -0.2107
     12 C         142.7625  139.7612  161.8722 C.ar    1  UNL1        0.0208
     13 C         142.5870  138.2993  161.5856 C.ar    1  UNL1        0.1021
     14 N         142.7631  137.7826  160.1885 N.ar    1  UNL1       -0.2090
     15 C         143.1147  138.7278  159.0780 C.ar    1  UNL1        0.2400
     16 C         143.2901  140.1896  159.3646 C.ar    1  UNL1        0.1178
     17 C         143.1140  140.7063  160.7618 C.ar    1  UNL1        0.0221
     18 O         143.2907  138.2110  157.6808 O.3     1  UNL1       -0.4553
     19 C         142.6196  136.9364  157.2625 C.3     1  UNL1        0.2543
     20 N         143.6416  141.1347  158.2542 N.pl3   1  UNL1       -0.2104
     21 H         144.4154  140.9476  157.6750 H       1  UNL1        0.1739
     22 S         142.8141  142.3649  158.0262 S.O2    1  UNL1        0.0759
     23 O         141.6521  141.5079  157.6197 O.2     1  UNL1       -0.1499
     24 O         143.9761  143.2219  158.4326 O.2     1  UNL1       -0.1499
     25 C         141.9867  143.5951  157.7981 C.ar    1  UNL1        0.1526
     26 C         142.0724  144.3249  156.4904 C.ar    1  UNL1        0.0248
     27 C         141.2450  145.5550  156.2624 C.ar    1  UNL1        0.0312
     28 C         140.3317  146.0554  157.3420 C.ar    1  UNL1        0.1425
     29 F         139.5042  147.2855  157.1140 F       1  UNL1       -0.2041
     30 C         140.2459  145.3256  158.6497 C.ar    1  UNL1        0.0606
     31 C         141.0734  144.0954  158.8778 C.ar    1  UNL1        0.1611
     32 F         140.9876  143.3656  160.1854 F       1  UNL1       -0.2027
     33 C         142.4636  142.9452  170.3196 C.3     1  UNL1        0.1108
     34 N         142.2631  141.4875  170.0283 N.pl3   1  UNL1       -0.3013
     35 H         142.0160  140.8699  170.7540 H       1  UNL1        0.1497
     36 O         141.2963  143.5430  165.1201 O.3     1  UNL1       -0.4775
     37 C         140.3470  144.1412  164.1246 C.3     1  UNL1        0.1710
     38 C         138.9279  143.6597  164.0582 C.3     1  UNL1        0.0756
     39 C         137.9787  144.2579  163.0627 C.3     1  UNL1        0.1459
     40 O         138.4485  145.3377  162.1336 O.3     1  UNL1       -0.3535
     41 C         139.8675  145.8192  162.1999 C.3     1  UNL1        0.1459
     42 C         140.8167  145.2210  163.1954 C.3     1  UNL1        0.0756
@<TRIPOS>BOND
     1    33    34    1
     2    34     1    1
     3     1     2   ar
     4     2     3   ar
     5     3     4    1
     6     3     5   ar
     7     5     6   ar
     8     6     7   ar
     9     7    12    1
    10    12    13   ar
    11    13    14   ar
    12    14    15   ar
    13    15    18    1
    14    18    19    1
    15    15    16   ar
    16    16    20    1
    17    20    22    1
    18    22    23    2
    19    22    24    2
    20    22    25    1
    21    25    26   ar
    22    26    27   ar
    23    27    28   ar
    24    28    29    1
    25    28    30   ar
    26    30    31   ar
    27    31    32    1
    28    16    17   ar
    29     7     8   ar
    30     8     9   ar
    31     9    36    1
    32    36    37    1
    33    37    38    1
    34    38    39    1
    35    39    40    1
    36    40    41    1
    37    41    42    1
    38     9    10   ar
    39    10    11   ar
    40    11     1   ar
    41    10     5   ar
    42    17    12   ar
    43    42    37    1
    44    31    25   ar
    45    34    35    1
    46    20    21    1
@<TRIPOS>MOLECULE
*****
 42 46 0 0 0
SMALL
GASTEIGER

@<TRIPOS>ATOM
      1 C         138.9994  147.5228  156.8221 C.ar    1  UNL1        0.2167
      2 N         138.9930  146.6991  155.5686 N.ar    1  UNL1       -0.2182
      3 C         139.4862  145.2828  155.5992 C.ar    1  UNL1        0.0638
      4 C         139.4797  144.4591  154.3456 C.3     1  UNL1        0.0522
      5 C         139.9858  144.6902  156.8834 C.ar    1  UNL1        0.0344
      6 C         140.4790  143.2740  156.9141 C.ar    1  UNL1        0.0029
      7 C         140.9786  142.6814  158.1983 C.ar    1  UNL1        0.0047
      8 C         140.9850  143.5051  159.4519 C.ar    1  UNL1        0.0385
      9 C         140.4919  144.9214  159.4213 C.ar    1  UNL1        0.1560
     10 C         139.9922  145.5139  158.1370 C.ar    1  UNL1        0.1191
     11 N         139.4990  146.9302  158.1063 N.ar    1  UNL1       -0.2107
     12 C         141.4718  141.2651  158.2290 C.ar    1  UNL1        0.0208
     13 C         141.7089  140.5256  156.9456 C.ar    1  UNL1        0.1021
     14 N         142.2021  139.1093  156.9763 N.ar    1  UNL1       -0.2090
     15 C         142.4582  138.4326  158.2903 C.ar    1  UNL1        0.2400
     16 C         142.2210  139.1721  159.5735 C.ar    1  UNL1        0.1178
     17 C         141.7278  140.5884  159.5429 C.ar    1  UNL1        0.0221
     18 O         142.9513  137.0163  158.3210 O.3     1  UNL1       -0.4553
     19 C         142.9358  136.1894  157.0695 C.3     1  UNL1        0.2543
     20 N         142.4770  138.4954  160.8875 N.pl3   1  UNL1       -0.2104
     21 H         143.2988  137.9692  161.0183 H       1  UNL1        0.1739
     22 S         141.4810  138.6203  162.0021 S.O2    1  UNL1        0.0759
     23 O         142.4613  139.4417  162.7859 O.2     1  UNL1       -0.1499
     24 O         140.5007  137.7990  161.2184 O.2     1  UNL1       -0.1499
     25 C         140.4851  138.7453  163.1168 C.ar    1  UNL1        0.1526
     26 C         140.1905  137.5656  163.9952 C.ar    1  UNL1        0.0248
     27 C         139.1946  137.6905  165.1098 C.ar    1  UNL1        0.0312
     28 C         138.4932  138.9952  165.3462 C.ar    1  UNL1        0.1425
     29 F         137.4973  139.1202  166.4608 F       1  UNL1       -0.2041
     30 C         138.7878  140.1750  164.4679 C.ar    1  UNL1        0.0606
     31 C         139.7837  140.0500  163.3531 C.ar    1  UNL1        0.1611
     32 F         140.0783  141.2297  162.4748 F       1  UNL1       -0.2027
     33 C         138.1344  149.6316  158.0690 C.3     1  UNL1        0.1108
     34 N         138.5062  148.9390  156.7914 N.pl3   1  UNL1       -0.3013
     35 H         138.4266  149.4141  155.9328 H       1  UNL1        0.1497
     36 O         140.4983  145.7451  160.6748 O.3     1  UNL1       -0.4775
     37 C         140.3130  145.0833  162.0081 C.3     1  UNL1        0.1710
     38 C         138.9439  144.6609  162.4520 C.3     1  UNL1        0.0756
     39 C         138.7586  143.9991  163.7853 C.3     1  UNL1        0.1459
     40 O         139.9425  143.7597  164.6747 O.3     1  UNL1       -0.3535
     41 C         141.3117  144.1821  164.2308 C.3     1  UNL1        0.1459
     42 C         141.4969  144.8439  162.8976 C.3     1  UNL1        0.0756
@<TRIPOS>BOND
     1    33    34    1
     2    34     1    1
     3     1     2   ar
     4     2     3   ar
     5     3     4    1
     6     3     5   ar
     7     5     6   ar
     8     6     7   ar
     9     7    12    1
    10    12    13   ar
    11    13    14   ar
    12    14    15   ar
    13    15    18    1
    14    18    19    1
    15    15    16   ar
    16    16    20    1
    17    20    22    1
    18    22    23    2
    19    22    24    2
    20    22    25    1
    21    25    26   ar
    22    26    27   ar
    23    27    28   ar
    24    28    29    1
    25    28    30   ar
    26    30    31   ar
    27    31    32    1
    28    16    17   ar
    29     7     8   ar
    30     8     9   ar
    31     9    36    1
    32    36    37    1
    33    37    38    1
    34    38    39    1
    35    39    40    1
    36    40    41    1
    37    41    42    1
    38     9    10   ar
    39    10    11   ar
    40    11     1   ar
    41    10     5   ar
    42    17    12   ar
    43    42    37    1
    44    31    25   ar
    45    34    35    1
    46    20    21    1
@<TRIPOS>MOLECULE
*****
 42 46 0 0 0
SMALL
GASTEIGER

@<TRIPOS>ATOM
      1 C         140.1881  140.3950  169.1387 C.ar    1  UNL1        0.2167
      2 N         139.0208  139.5050  168.8302 N.ar    1  UNL1       -0.2182
      3 C         138.5678  139.3269  167.4113 C.ar    1  UNL1        0.0638
      4 C         137.4004  138.4369  167.1029 C.3     1  UNL1        0.0522
      5 C         139.2822  140.0388  166.3010 C.ar    1  UNL1        0.0344
      6 C         138.8292  139.8606  164.8822 C.ar    1  UNL1        0.0029
      7 C         139.5436  140.5725  163.7718 C.ar    1  UNL1        0.0047
      8 C         140.7110  141.4625  164.0803 C.ar    1  UNL1        0.0385
      9 C         141.1639  141.6407  165.4991 C.ar    1  UNL1        0.1560
     10 C         140.4495  140.9287  166.6095 C.ar    1  UNL1        0.1191
     11 N         140.9025  141.1069  168.0283 N.ar    1  UNL1       -0.2107
     12 C         139.0906  140.3943  162.3530 C.ar    1  UNL1        0.0208
     13 C         137.6772  140.7202  161.9704 C.ar    1  UNL1        0.1021
     14 N         137.2243  140.5420  160.5516 N.ar    1  UNL1       -0.2090
     15 C         138.1847  140.0381  159.5153 C.ar    1  UNL1        0.2400
     16 C         139.5980  139.7123  159.8979 C.ar    1  UNL1        0.1178
     17 C         140.0509  139.8904  161.3168 C.ar    1  UNL1        0.0221
     18 O         137.7317  139.8599  158.0965 O.3     1  UNL1       -0.4553
     19 C         137.3321  141.0540  157.2812 C.3     1  UNL1        0.2543
     20 N         140.5583  139.2083  158.8617 N.pl3   1  UNL1       -0.2104
     21 H         140.3604  138.3793  158.3689 H       1  UNL1        0.1739
     22 S         141.8202  139.9675  158.5763 S.O2    1  UNL1        0.0759
     23 O         141.0145  141.0799  157.9734 O.2     1  UNL1       -0.1499
     24 O         142.6258  138.8551  159.1791 O.2     1  UNL1       -0.1499
     25 C         143.0820  140.7266  158.2908 C.ar    1  UNL1        0.1526
     26 C         143.8906  140.4051  157.0690 C.ar    1  UNL1        0.0248
     27 C         145.1524  141.1642  156.7836 C.ar    1  UNL1        0.0312
     28 C         145.6056  142.2449  157.7199 C.ar    1  UNL1        0.1425
     29 F         146.8674  143.0041  157.4345 F       1  UNL1       -0.2041
     30 C         144.7970  142.5665  158.9416 C.ar    1  UNL1        0.0606
     31 C         143.5351  141.8074  159.2271 C.ar    1  UNL1        0.1611
     32 F         142.7265  142.1289  160.4489 F       1  UNL1       -0.2027
     33 C         141.0367  141.9324  171.0534 C.3     1  UNL1        0.1108
     34 N         140.6411  140.5732  170.5575 N.pl3   1  UNL1       -0.3013
     35 H         140.6787  139.7980  171.1632 H       1  UNL1        0.1497
     36 O         142.3313  142.5307  165.8076 O.3     1  UNL1       -0.4775
     37 C         143.1067  143.1647  164.6910 C.3     1  UNL1        0.1710
     38 C         142.8490  144.5940  164.3161 C.3     1  UNL1        0.0756
     39 C         143.6245  145.2280  163.1996 C.3     1  UNL1        0.1459
     40 O         144.6576  144.4326  162.4579 O.3     1  UNL1       -0.3535
     41 C         144.9152  143.0033  162.8328 C.3     1  UNL1        0.1459
     42 C         144.1398  142.3693  163.9493 C.3     1  UNL1        0.0756
@<TRIPOS>BOND
     1    33    34    1
     2    34     1    1
     3     1     2   ar
     4     2     3   ar
     5     3     4    1
     6     3     5   ar
     7     5     6   ar
     8     6     7   ar
     9     7    12    1
    10    12    13   ar
    11    13    14   ar
    12    14    15   ar
    13    15    18    1
    14    18    19    1
    15    15    16   ar
    16    16    20    1
    17    20    22    1
    18    22    23    2
    19    22    24    2
    20    22    25    1
    21    25    26   ar
    22    26    27   ar
    23    27    28   ar
    24    28    29    1
    25    28    30   ar
    26    30    31   ar
    27    31    32    1
    28    16    17   ar
    29     7     8   ar
    30     8     9   ar
    31     9    36    1
    32    36    37    1
    33    37    38    1
    34    38    39    1
    35    39    40    1
    36    40    41    1
    37    41    42    1
    38     9    10   ar
    39    10    11   ar
    40    11     1   ar
    41    10     5   ar
    42    17    12   ar
    43    42    37    1
    44    31    25   ar
    45    34    35    1
    46    20    21    1
@<TRIPOS>MOLECULE
*****
 42 46 0 0 0
SMALL
GASTEIGER

@<TRIPOS>ATOM
      1 C         142.7337  135.6757  156.8566 C.ar    1  UNL1        0.2167
      2 N         141.8754  136.1373  155.7164 N.ar    1  UNL1       -0.2182
      3 C         141.4098  137.5619  155.6570 C.ar    1  UNL1        0.0638
      4 C         140.5514  138.0235  154.5167 C.3     1  UNL1        0.0522
      5 C         141.8025  138.5250  156.7378 C.ar    1  UNL1        0.0344
      6 C         141.3369  139.9497  156.6784 C.ar    1  UNL1        0.0029
      7 C         141.7296  140.9127  157.7593 C.ar    1  UNL1        0.0047
      8 C         142.5880  140.4511  158.8996 C.ar    1  UNL1        0.0385
      9 C         143.0536  139.0265  158.9590 C.ar    1  UNL1        0.1560
     10 C         142.6608  138.0634  157.8780 C.ar    1  UNL1        0.1191
     11 N         143.1264  136.6387  157.9374 N.ar    1  UNL1       -0.2107
     12 C         141.2640  142.3374  157.6999 C.ar    1  UNL1        0.0208
     13 C         141.3759  143.1102  156.4191 C.ar    1  UNL1        0.1021
     14 N         140.9103  144.5349  156.3597 N.ar    1  UNL1       -0.2090
     15 C         140.3327  145.1867  157.5811 C.ar    1  UNL1        0.2400
     16 C         140.2208  144.4139  158.8617 C.ar    1  UNL1        0.1178
     17 C         140.6865  142.9892  158.9211 C.ar    1  UNL1        0.0221
     18 O         139.8671  146.6114  157.5217 O.3     1  UNL1       -0.4553
     19 C         139.2477  147.1462  156.2645 C.3     1  UNL1        0.2543
     20 N         139.6433  145.0657  160.0830 N.pl3   1  UNL1       -0.2104
     21 H         139.0964  145.8795  159.9946 H       1  UNL1        0.1739
     22 S         139.8991  144.4776  161.4391 S.O2    1  UNL1        0.0759
     23 O         138.5903  143.7482  161.3696 O.2     1  UNL1       -0.1499
     24 O         141.2080  145.2070  161.5085 O.2     1  UNL1       -0.1499
     25 C         140.1549  143.8895  162.7950 C.ar    1  UNL1        0.1526
     26 C         139.4713  144.4613  164.0016 C.ar    1  UNL1        0.0248
     27 C         139.7271  143.8732  165.3576 C.ar    1  UNL1        0.0312
     28 C         140.6664  142.7134  165.5071 C.ar    1  UNL1        0.1425
     29 F         140.9222  142.1253  166.8630 F       1  UNL1       -0.2041
     30 C         141.3500  142.1416  164.3006 C.ar    1  UNL1        0.0606
     31 C         141.0942  142.7296  162.9445 C.ar    1  UNL1        0.1611
     32 F         141.7778  142.1579  161.7380 F       1  UNL1       -0.2027
     33 C         142.4650  133.1895  156.1519 C.3     1  UNL1        0.1108
     34 N         143.1994  134.2510  156.9160 N.pl3   1  UNL1       -0.3013
     35 H         143.9869  134.0127  157.4565 H       1  UNL1        0.1497
     36 O         143.9119  138.5649  160.0992 O.3     1  UNL1       -0.4775
     37 C         143.3417  138.4895  161.4846 C.3     1  UNL1        0.1710
     38 C         142.0586  137.7519  161.7284 C.3     1  UNL1        0.0756
     39 C         141.4885  137.6766  163.1138 C.3     1  UNL1        0.1459
     40 O         142.2014  138.3389  164.2553 O.3     1  UNL1       -0.3535
     41 C         143.4845  139.0765  164.0114 C.3     1  UNL1        0.1459
     42 C         144.0547  139.1518  162.6261 C.3     1  UNL1        0.0756
@<TRIPOS>BOND
     1    33    34    1
     2    34     1    1
     3     1     2   ar
     4     2     3   ar
     5     3     4    1
     6     3     5   ar
     7     5     6   ar
     8     6     7   ar
     9     7    12    1
    10    12    13   ar
    11    13    14   ar
    12    14    15   ar
    13    15    18    1
    14    18    19    1
    15    15    16   ar
    16    16    20    1
    17    20    22    1
    18    22    23    2
    19    22    24    2
    20    22    25    1
    21    25    26   ar
    22    26    27   ar
    23    27    28   ar
    24    28    29    1
    25    28    30   ar
    26    30    31   ar
    27    31    32    1
    28    16    17   ar
    29     7     8   ar
    30     8     9   ar
    31     9    36    1
    32    36    37    1
    33    37    38    1
    34    38    39    1
    35    39    40    1
    36    40    41    1
    37    41    42    1
    38     9    10   ar
    39    10    11   ar
    40    11     1   ar
    41    10     5   ar
    42    17    12   ar
    43    42    37    1
    44    31    25   ar
    45    34    35    1
    46    20    21    1
@<TRIPOS>MOLECULE
*****
 42 46 0 0 0
SMALL
GASTEIGER

@<TRIPOS>ATOM
      1 C         142.1128  137.1585  156.8930 C.ar    1  UNL1        0.2167
      2 N         142.9419  137.2996  158.1350 N.ar    1  UNL1       -0.2182
      3 C         142.4807  138.1943  159.2471 C.ar    1  UNL1        0.0638
      4 C         143.3098  138.3353  160.4892 C.3     1  UNL1        0.0522
      5 C         141.1903  138.9479  159.1172 C.ar    1  UNL1        0.0344
      6 C         140.7290  139.8426  160.2293 C.ar    1  UNL1        0.0029
      7 C         139.4386  140.5962  160.0994 C.ar    1  UNL1        0.0047
      8 C         138.6094  140.4552  158.8573 C.ar    1  UNL1        0.0385
      9 C         139.0707  139.5605  157.7452 C.ar    1  UNL1        0.1560
     10 C         140.3612  138.8068  157.8752 C.ar    1  UNL1        0.1191
     11 N         140.8224  137.9121  156.7631 N.ar    1  UNL1       -0.2107
     12 C         138.9773  141.4909  161.2115 C.ar    1  UNL1        0.0208
     13 C         138.3533  142.8181  160.8964 C.ar    1  UNL1        0.1021
     14 N         137.8921  143.7128  162.0085 N.ar    1  UNL1       -0.2090
     15 C         138.0548  143.2803  163.4356 C.ar    1  UNL1        0.2400
     16 C         138.6788  141.9531  163.7506 C.ar    1  UNL1        0.1178
     17 C         139.1400  141.0584  162.6385 C.ar    1  UNL1        0.0221
     18 O         137.5935  144.1750  164.5477 O.3     1  UNL1       -0.4553
     19 C         138.5975  144.9231  165.3739 C.3     1  UNL1        0.2543
     20 N         138.8415  141.5207  165.1776 N.pl3   1  UNL1       -0.2104
     21 H         138.1757  141.7878  165.8519 H       1  UNL1        0.1739
     22 S         140.0185  140.6811  165.5773 S.O2    1  UNL1        0.0759
     23 O         139.1180  139.4913  165.7299 O.2     1  UNL1       -0.1499
     24 O         140.9191  141.8710  165.4248 O.2     1  UNL1       -0.1499
     25 C         141.1955  139.8416  165.9770 C.ar    1  UNL1        0.1526
     26 C         141.7025  139.8841  167.3882 C.ar    1  UNL1        0.0248
     27 C         142.8795  139.0446  167.7879 C.ar    1  UNL1        0.0312
     28 C         143.5496  138.1624  166.7766 C.ar    1  UNL1        0.1425
     29 F         144.7265  137.3229  167.1763 F       1  UNL1       -0.2041
     30 C         143.0427  138.1199  165.3655 C.ar    1  UNL1        0.0606
     31 C         141.8656  138.9595  164.9657 C.ar    1  UNL1        0.1611
     32 F         141.3587  138.9169  163.5546 F       1  UNL1       -0.2027
     33 C         144.0381  135.9989  155.5896 C.3     1  UNL1        0.1108
     34 N         142.5741  136.2638  155.7809 N.pl3   1  UNL1       -0.3013
     35 H         141.9160  135.8504  155.1766 H       1  UNL1        0.1497
     36 O         138.2416  139.4194  156.5032 O.3     1  UNL1       -0.4775
     37 C         137.7910  140.6416  155.7594 C.3     1  UNL1        0.1710
     38 C         138.7394  141.3521  154.8398 C.3     1  UNL1        0.0756
     39 C         138.2887  142.5743  154.0960 C.3     1  UNL1        0.1459
     40 O         136.8897  143.0859  154.2718 O.3     1  UNL1       -0.3535
     41 C         135.9413  142.3754  155.1914 C.3     1  UNL1        0.1459
     42 C         136.3919  141.1532  155.9352 C.3     1  UNL1        0.0756
@<TRIPOS>BOND
     1    33    34    1
     2    34     1    1
     3     1     2   ar
     4     2     3   ar
     5     3     4    1
     6     3     5   ar
     7     5     6   ar
     8     6     7   ar
     9     7    12    1
    10    12    13   ar
    11    13    14   ar
    12    14    15   ar
    13    15    18    1
    14    18    19    1
    15    15    16   ar
    16    16    20    1
    17    20    22    1
    18    22    23    2
    19    22    24    2
    20    22    25    1
    21    25    26   ar
    22    26    27   ar
    23    27    28   ar
    24    28    29    1
    25    28    30   ar
    26    30    31   ar
    27    31    32    1
    28    16    17   ar
    29     7     8   ar
    30     8     9   ar
    31     9    36    1
    32    36    37    1
    33    37    38    1
    34    38    39    1
    35    39    40    1
    36    40    41    1
    37    41    42    1
    38     9    10   ar
    39    10    11   ar
    40    11     1   ar
    41    10     5   ar
    42    17    12   ar
    43    42    37    1
    44    31    25   ar
    45    34    35    1
    46    20    21    1
@<TRIPOS>MOLECULE
*****
 42 46 0 0 0
SMALL
GASTEIGER

@<TRIPOS>ATOM
      1 C         144.8994  141.3511  157.6421 C.ar    1  UNL1        0.2167
      2 N         144.5364  142.5261  158.5008 N.ar    1  UNL1       -0.2182
      3 C         143.5925  142.3498  159.6531 C.ar    1  UNL1        0.0638
      4 C         143.2294  143.5249  160.5119 C.3     1  UNL1        0.0522
      5 C         143.0115  140.9984  159.9468 C.ar    1  UNL1        0.0344
      6 C         142.0676  140.8221  161.0991 C.ar    1  UNL1        0.0029
      7 C         141.4867  139.4707  161.3927 C.ar    1  UNL1        0.0047
      8 C         141.8497  138.2956  160.5340 C.ar    1  UNL1        0.0385
      9 C         142.7937  138.4719  159.3816 C.ar    1  UNL1        0.1560
     10 C         143.3746  139.8234  159.0880 C.ar    1  UNL1        0.1191
     11 N         144.3185  139.9997  157.9357 N.ar    1  UNL1       -0.2107
     12 C         140.5428  139.2943  162.5450 C.ar    1  UNL1        0.0208
     13 C         139.9169  137.9559  162.8038 C.ar    1  UNL1        0.1021
     14 N         138.9729  137.7795  163.9561 N.ar    1  UNL1       -0.2090
     15 C         138.6549  138.9416  164.8497 C.ar    1  UNL1        0.2400
     16 C         139.2807  140.2800  164.5909 C.ar    1  UNL1        0.1178
     17 C         140.2247  140.4564  163.4386 C.ar    1  UNL1        0.0221
     18 O         137.7109  138.7653  166.0020 O.3     1  UNL1       -0.4553
     19 C         137.6365  137.4480  166.7158 C.3     1  UNL1        0.2543
     20 N         138.9626  141.4420  165.4845 N.pl3   1  UNL1       -0.2104
     21 H         138.1264  141.9459  165.3579 H       1  UNL1        0.1739
     22 S         139.9187  141.8364  166.5710 S.O2    1  UNL1        0.0759
     23 O         139.4957  140.6437  167.3761 O.2     1  UNL1       -0.1499
     24 O         140.3418  143.0292  165.7658 O.2     1  UNL1       -0.1499
     25 C         140.8748  142.2308  167.6574 C.ar    1  UNL1        0.1526
     26 C         140.3845  143.0105  168.8414 C.ar    1  UNL1        0.0248
     27 C         141.3405  143.4049  169.9278 C.ar    1  UNL1        0.0312
     28 C         142.7869  143.0196  169.8304 C.ar    1  UNL1        0.1425
     29 F         143.7429  143.4139  170.9169 F       1  UNL1       -0.2041
     30 C         143.2772  142.2399  168.6465 C.ar    1  UNL1        0.0606
     31 C         142.3212  141.8455  167.5600 C.ar    1  UNL1        0.1611
     32 F         142.8115  141.0658  166.3761 F       1  UNL1       -0.2027
     33 C         147.0399  142.4211  156.6303 C.3     1  UNL1        0.1108
     34 N         145.8434  141.5275  156.4898 N.pl3   1  UNL1       -0.3013
     35 H         145.6776  141.0567  155.6411 H       1  UNL1        0.1497
     36 O         143.1567  137.2969  158.5229 O.3     1  UNL1       -0.4775
     37 C         142.4675  137.0881  157.2070 C.3     1  UNL1        0.1710
     38 C         141.0402  137.5150  157.0319 C.3     1  UNL1        0.0756
     39 C         140.3511  137.3063  155.7161 C.3     1  UNL1        0.1459
     40 O         141.0891  136.6707  154.5754 O.3     1  UNL1       -0.3535
     41 C         142.5164  136.2438  154.7505 C.3     1  UNL1        0.1459
     42 C         143.2055  136.4525  156.0663 C.3     1  UNL1        0.0756
@<TRIPOS>BOND
     1    33    34    1
     2    34     1    1
     3     1     2   ar
     4     2     3   ar
     5     3     4    1
     6     3     5   ar
     7     5     6   ar
     8     6     7   ar
     9     7    12    1
    10    12    13   ar
    11    13    14   ar
    12    14    15   ar
    13    15    18    1
    14    18    19    1
    15    15    16   ar
    16    16    20    1
    17    20    22    1
    18    22    23    2
    19    22    24    2
    20    22    25    1
    21    25    26   ar
    22    26    27   ar
    23    27    28   ar
    24    28    29    1
    25    28    30   ar
    26    30    31   ar
    27    31    32    1
    28    16    17   ar
    29     7     8   ar
    30     8     9   ar
    31     9    36    1
    32    36    37    1
    33    37    38    1
    34    38    39    1
    35    39    40    1
    36    40    41    1
    37    41    42    1
    38     9    10   ar
    39    10    11   ar
    40    11     1   ar
    41    10     5   ar
    42    17    12   ar
    43    42    37    1
    44    31    25   ar
    45    34    35    1
    46    20    21    1
@<TRIPOS>MOLECULE
*****
 42 46 0 0 0
SMALL
GASTEIGER

@<TRIPOS>ATOM
      1 C         135.7159  141.2869  156.1811 C.ar    1  UNL1        0.2167
      2 N         136.3552  142.2742  155.2504 N.ar    1  UNL1       -0.2182
      3 C         137.8129  142.5999  155.3884 C.ar    1  UNL1        0.0638
      4 C         138.4523  143.5873  154.4576 C.3     1  UNL1        0.0522
      5 C         138.6313  141.9383  156.4573 C.ar    1  UNL1        0.0344
      6 C         140.0890  142.2639  156.5954 C.ar    1  UNL1        0.0029
      7 C         140.9073  141.6023  157.6642 C.ar    1  UNL1        0.0047
      8 C         140.2679  140.6149  158.5951 C.ar    1  UNL1        0.0385
      9 C         138.8102  140.2892  158.4570 C.ar    1  UNL1        0.1560
     10 C         137.9919  140.9509  157.3881 C.ar    1  UNL1        0.1191
     11 N         136.5342  140.6253  157.2500 N.ar    1  UNL1       -0.2107
     12 C         142.3650  141.9279  157.8023 C.ar    1  UNL1        0.0208
     13 C         143.2204  142.0722  156.5786 C.ar    1  UNL1        0.1021
     14 N         144.6781  142.3979  156.7167 N.ar    1  UNL1       -0.2090
     15 C         145.2804  142.5793  158.0785 C.ar    1  UNL1        0.2400
     16 C         144.4249  142.4350  159.3021 C.ar    1  UNL1        0.1178
     17 C         142.9672  142.1093  159.1641 C.ar    1  UNL1        0.0221
     18 O         146.7381  142.9049  158.2166 O.3     1  UNL1       -0.4553
     19 C         147.6350  142.8542  157.0153 C.3     1  UNL1        0.2543
     20 N         145.0272  142.6164  160.6639 N.pl3   1  UNL1       -0.2104
     21 H         145.9993  142.7391  160.7598 H       1  UNL1        0.1739
     22 S         144.1483  142.6108  161.8795 S.O2    1  UNL1        0.0759
     23 O         143.9253  144.0860  161.7250 O.2     1  UNL1       -0.1499
     24 O         144.3713  141.1355  162.0340 O.2     1  UNL1       -0.1499
     25 C         143.2695  142.6052  163.0950 C.ar    1  UNL1        0.1526
     26 C         141.7776  142.5728  162.9418 C.ar    1  UNL1        0.0248
     27 C         140.8988  142.5672  164.1574 C.ar    1  UNL1        0.0312
     28 C         141.5117  142.5942  165.5262 C.ar    1  UNL1        0.1425
     29 F         140.6329  142.5886  166.7417 F       1  UNL1       -0.2041
     30 C         143.0035  142.6266  165.6794 C.ar    1  UNL1        0.0606
     31 C         143.8824  142.6322  164.4638 C.ar    1  UNL1        0.1611
     32 F         145.3742  142.6646  164.6171 F       1  UNL1       -0.2027
     33 C         133.6583  139.8491  156.8512 C.3     1  UNL1        0.1108
     34 N         134.2582  140.9613  156.0430 N.pl3   1  UNL1       -0.3013
     35 H         133.6952  141.4775  155.4219 H       1  UNL1        0.1497
     36 O         138.1709  139.3019  159.3878 O.3     1  UNL1       -0.4775
     37 C         138.1421  139.5718  160.8631 C.3     1  UNL1        0.1710
     38 C         137.7268  140.9208  161.3707 C.3     1  UNL1        0.0756
     39 C         137.6980  141.1907  162.8459 C.3     1  UNL1        0.1459
     40 O         138.0847  140.1116  163.8135 O.3     1  UNL1       -0.3535
     41 C         138.5000  138.7626  163.3058 C.3     1  UNL1        0.1459
     42 C         138.5288  138.4928  161.8306 C.3     1  UNL1        0.0756
@<TRIPOS>BOND
     1    33    34    1
     2    34     1    1
     3     1     2   ar
     4     2     3   ar
     5     3     4    1
     6     3     5   ar
     7     5     6   ar
     8     6     7   ar
     9     7    12    1
    10    12    13   ar
    11    13    14   ar
    12    14    15   ar
    13    15    18    1
    14    18    19    1
    15    15    16   ar
    16    16    20    1
    17    20    22    1
    18    22    23    2
    19    22    24    2
    20    22    25    1
    21    25    26   ar
    22    26    27   ar
    23    27    28   ar
    24    28    29    1
    25    28    30   ar
    26    30    31   ar
    27    31    32    1
    28    16    17   ar
    29     7     8   ar
    30     8     9   ar
    31     9    36    1
    32    36    37    1
    33    37    38    1
    34    38    39    1
    35    39    40    1
    36    40    41    1
    37    41    42    1
    38     9    10   ar
    39    10    11   ar
    40    11     1   ar
    41    10     5   ar
    42    17    12   ar
    43    42    37    1
    44    31    25   ar
    45    34    35    1
    46    20    21    1
@<TRIPOS>MOLECULE
*****
 42 46 0 0 0
SMALL
GASTEIGER

@<TRIPOS>ATOM
      1 C         141.6898  140.3776  165.8125 C.ar    1  UNL1        0.2167
      2 N         141.4770  138.8942  165.7487 N.ar    1  UNL1       -0.2182
      3 C         141.3586  138.2099  164.4191 C.ar    1  UNL1        0.0638
      4 C         141.1458  136.7264  164.3554 C.3     1  UNL1        0.0522
      5 C         141.4530  139.0091  163.1533 C.ar    1  UNL1        0.0344
      6 C         141.3346  138.3249  161.8237 C.ar    1  UNL1        0.0029
      7 C         141.4290  139.1241  160.5579 C.ar    1  UNL1        0.0047
      8 C         141.6418  140.6076  160.6217 C.ar    1  UNL1        0.0385
      9 C         141.7602  141.2919  161.9512 C.ar    1  UNL1        0.1560
     10 C         141.6658  140.4926  163.2171 C.ar    1  UNL1        0.1191
     11 N         141.7842  141.1768  164.5467 N.ar    1  UNL1       -0.2107
     12 C         141.3106  138.4399  159.2283 C.ar    1  UNL1        0.0208
     13 C         140.0196  138.4991  158.4667 C.ar    1  UNL1        0.1021
     14 N         139.9012  137.8149  157.1371 N.ar    1  UNL1       -0.2090
     15 C         141.0738  137.0715  156.5691 C.ar    1  UNL1        0.2400
     16 C         142.3647  137.0123  157.3307 C.ar    1  UNL1        0.1178
     17 C         142.4831  137.6965  158.6603 C.ar    1  UNL1        0.0221
     18 O         140.9554  136.3872  155.2395 O.3     1  UNL1       -0.4553
     19 C         140.4734  137.1523  154.0426 C.3     1  UNL1        0.2543
     20 N         143.5371  136.2689  156.7627 N.pl3   1  UNL1       -0.2104
     21 H         144.2693  136.7629  156.3277 H       1  UNL1        0.1739
     22 S         143.5942  134.7730  156.8576 S.O2    1  UNL1        0.0759
     23 O         143.8404  134.6887  155.3804 O.2     1  UNL1       -0.1499
     24 O         143.3479  134.8572  158.3348 O.2     1  UNL1       -0.1499
     25 C         143.6512  133.2771  156.9524 C.ar    1  UNL1        0.1526
     26 C         144.8110  132.6124  157.6330 C.ar    1  UNL1        0.0248
     27 C         144.8680  131.1165  157.7278 C.ar    1  UNL1        0.0312
     28 C         143.7653  130.2853  157.1421 C.ar    1  UNL1        0.1425
     29 F         143.8224  128.7894  157.2369 F       1  UNL1       -0.2041
     30 C         142.6056  130.9499  156.4616 C.ar    1  UNL1        0.0606
     31 C         142.5485  132.4459  156.3667 C.ar    1  UNL1        0.1611
     32 F         141.3887  133.1105  155.6862 F       1  UNL1       -0.2027
     33 C         142.5483  140.3968  168.2646 C.3     1  UNL1        0.1108
     34 N         141.8082  141.0618  167.1421 N.pl3   1  UNL1       -0.3013
     35 H         141.4002  141.9474  167.2780 H       1  UNL1        0.1497
     36 O         141.9730  142.7753  162.0150 O.3     1  UNL1       -0.4775
     37 C         140.7941  143.6994  162.0953 C.3     1  UNL1        0.1710
     38 C         139.4628  143.1789  162.5498 C.3     1  UNL1        0.0756
     39 C         138.2840  144.1029  162.6300 C.3     1  UNL1        0.1459
     40 O         138.4365  145.5475  162.2557 O.3     1  UNL1       -0.3535
     41 C         139.7678  146.0679  161.8013 C.3     1  UNL1        0.1459
     42 C         140.9466  145.1439  161.7210 C.3     1  UNL1        0.0756
@<TRIPOS>BOND
     1    33    34    1
     2    34     1    1
     3     1     2   ar
     4     2     3   ar
     5     3     4    1
     6     3     5   ar
     7     5     6   ar
     8     6     7   ar
     9     7    12    1
    10    12    13   ar
    11    13    14   ar
    12    14    15   ar
    13    15    18    1
    14    18    19    1
    15    15    16   ar
    16    16    20    1
    17    20    22    1
    18    22    23    2
    19    22    24    2
    20    22    25    1
    21    25    26   ar
    22    26    27   ar
    23    27    28   ar
    24    28    29    1
    25    28    30   ar
    26    30    31   ar
    27    31    32    1
    28    16    17   ar
    29     7     8   ar
    30     8     9   ar
    31     9    36    1
    32    36    37    1
    33    37    38    1
    34    38    39    1
    35    39    40    1
    36    40    41    1
    37    41    42    1
    38     9    10   ar
    39    10    11   ar
    40    11     1   ar
    41    10     5   ar
    42    17    12   ar
    43    42    37    1
    44    31    25   ar
    45    34    35    1
    46    20    21    1
@<TRIPOS>MOLECULE
*****
 42 46 0 0 0
SMALL
GASTEIGER

@<TRIPOS>ATOM
      1 C         144.9341  141.7696  162.1468 C.ar    1  UNL1        0.2167
      2 N         144.8992  142.5381  160.8591 N.ar    1  UNL1       -0.2182
      3 C         144.1296  142.0041  159.6875 C.ar    1  UNL1        0.0638
      4 C         144.0948  142.7727  158.3998 C.3     1  UNL1        0.0522
      5 C         143.3949  140.7016  159.8036 C.ar    1  UNL1        0.0344
      6 C         142.6253  140.1676  158.6321 C.ar    1  UNL1        0.0029
      7 C         141.8905  138.8651  158.7482 C.ar    1  UNL1        0.0047
      8 C         141.9253  138.0965  160.0359 C.ar    1  UNL1        0.0385
      9 C         142.6949  138.6305  161.2074 C.ar    1  UNL1        0.1560
     10 C         143.4297  139.9331  161.0913 C.ar    1  UNL1        0.1191
     11 N         144.1993  140.4671  162.2629 N.ar    1  UNL1       -0.2107
     12 C         141.1209  138.3311  157.5766 C.ar    1  UNL1        0.0208
     13 C         139.7011  138.7605  157.3533 C.ar    1  UNL1        0.1021
     14 N         138.9315  138.2265  156.1817 N.ar    1  UNL1       -0.2090
     15 C         139.5817  137.2631  155.2335 C.ar    1  UNL1        0.2400
     16 C         141.0014  136.8337  155.4568 C.ar    1  UNL1        0.1178
     17 C         141.7710  137.3677  156.6283 C.ar    1  UNL1        0.0221
     18 O         138.8121  136.7291  154.0619 O.3     1  UNL1       -0.4553
     19 C         137.7134  137.5471  153.4505 C.3     1  UNL1        0.2543
     20 N         141.6516  135.8704  154.5085 N.pl3   1  UNL1       -0.2104
     21 H         141.6191  136.0366  153.5387 H       1  UNL1        0.1739
     22 S         142.3513  134.6537  155.0379 S.O2    1  UNL1        0.0759
     23 O         143.6754  135.3322  154.8470 O.2     1  UNL1       -0.1499
     24 O         141.0273  133.9752  155.2288 O.2     1  UNL1       -0.1499
     25 C         143.0510  133.4371  155.5672 C.ar    1  UNL1        0.1526
     26 C         143.2458  132.2402  154.6843 C.ar    1  UNL1        0.0248
     27 C         143.9455  131.0236  155.2136 C.ar    1  UNL1        0.0312
     28 C         144.4505  131.0038  156.6259 C.ar    1  UNL1        0.1425
     29 F         145.1502  129.7872  157.1552 F       1  UNL1       -0.2041
     30 C         144.2558  132.2006  157.5088 C.ar    1  UNL1        0.0606
     31 C         143.5561  133.4173  156.9795 C.ar    1  UNL1        0.1611
     32 F         143.3613  134.6142  157.8625 F       1  UNL1       -0.2027
     33 C         144.9978  142.5955  164.6092 C.3     1  UNL1        0.1108
     34 N         145.7037  142.3036  163.3183 N.pl3   1  UNL1       -0.3013
     35 H         146.6721  142.4624  163.2400 H       1  UNL1        0.1497
     36 O         142.7297  137.8620  162.4951 O.3     1  UNL1       -0.4775
     37 C         141.6798  138.1005  163.5396 C.3     1  UNL1        0.1710
     38 C         142.0139  138.8856  164.7732 C.3     1  UNL1        0.0756
     39 C         140.9640  139.1241  165.8176 C.3     1  UNL1        0.1459
     40 O         139.5800  138.5775  165.6283 O.3     1  UNL1       -0.3535
     41 C         139.2459  137.7924  164.3947 C.3     1  UNL1        0.1459
     42 C         140.2958  137.5539  163.3503 C.3     1  UNL1        0.0756
@<TRIPOS>BOND
     1    33    34    1
     2    34     1    1
     3     1     2   ar
     4     2     3   ar
     5     3     4    1
     6     3     5   ar
     7     5     6   ar
     8     6     7   ar
     9     7    12    1
    10    12    13   ar
    11    13    14   ar
    12    14    15   ar
    13    15    18    1
    14    18    19    1
    15    15    16   ar
    16    16    20    1
    17    20    22    1
    18    22    23    2
    19    22    24    2
    20    22    25    1
    21    25    26   ar
    22    26    27   ar
    23    27    28   ar
    24    28    29    1
    25    28    30   ar
    26    30    31   ar
    27    31    32    1
    28    16    17   ar
    29     7     8   ar
    30     8     9   ar
    31     9    36    1
    32    36    37    1
    33    37    38    1
    34    38    39    1
    35    39    40    1
    36    40    41    1
    37    41    42    1
    38     9    10   ar
    39    10    11   ar
    40    11     1   ar
    41    10     5   ar
    42    17    12   ar
    43    42    37    1
    44    31    25   ar
    45    34    35    1
    46    20    21    1
