@<TRIPOS>MOLECULE
*****
 42 45 0 0 0
SMALL
GASTEIGER

@<TRIPOS>ATOM
      1 C         142.0627  141.1805  163.2634 C.3     1  UNL1        0.0777
      2 C         142.3895  141.4909  164.6941 C.ar    1  UNL1        0.0373
      3 C         141.5897  140.8663  165.7986 C.ar    1  UNL1        0.0023
      4 C         141.9165  141.1767  167.2294 C.ar    1  UNL1        0.0181
      5 C         141.1166  140.5522  168.3339 C.ar    1  UNL1        0.0082
      6 C         141.4434  140.8626  169.7646 C.ar    1  UNL1        0.0347
      7 BR        140.6435  140.2380  170.8692 Br      1  UNL1       -0.0490
      8 C         142.5701  141.7976  170.0907 C.ar    1  UNL1        0.0082
      9 C         143.3700  142.4222  168.9861 C.ar    1  UNL1        0.0197
     10 C         143.0431  142.1118  167.5555 C.ar    1  UNL1        0.0844
     11 N         143.8430  142.7364  166.4508 N.ar    1  UNL1       -0.2119
     12 C         143.5162  142.4259  165.0202 C.ar    1  UNL1        0.2211
     13 O         144.3161  143.0505  163.9156 O.3     1  UNL1       -0.4563
     14 C         143.9693  144.4242  163.4227 C.3     1  UNL1        0.2542
     15 C         141.2515  142.1472  162.4526 C.ar    1  UNL1       -0.0117
     16 C         141.6560  142.4694  161.0446 C.ar    1  UNL1        0.0217
     17 C         140.8447  143.4361  160.2338 C.ar    1  UNL1        0.1069
     18 N         139.6290  144.0806  160.8310 N.ar    1  UNL1       -0.2330
     19 C         139.2245  143.7583  162.2391 C.ar    1  UNL1        0.1069
     20 C         140.0358  142.7916  163.0498 C.ar    1  UNL1        0.0217
     21 S         141.2492  143.7583  158.8258 S.3     1  UNL1       -0.0940
     22 C         142.6445  143.9455  158.3077 C.3     1  UNL1        0.0757
     23 S         138.0088  144.4028  162.8363 S.3     1  UNL1       -0.0940
     24 C         137.6694  144.1712  164.2790 C.3     1  UNL1        0.0757
     25 C         142.5472  139.9034  162.6435 C.3     1  UNL1        0.1161
     26 O         143.9403  140.4571  162.5914 O.3     1  UNL1       -0.3820
     27 H         144.5360  139.7979  162.2023 H       1  UNL1        0.2107
     28 C         139.2743  138.1053  163.9870 C.ar    1  UNL1        0.2272
     29 C         140.6674  138.6590  163.9349 C.ar    1  UNL1        0.0559
     30 C         141.1541  139.3497  162.6955 C.ar    1  UNL1        0.0117
     31 C         140.2478  139.4865  161.5082 C.ar    1  UNL1        0.0559
     32 C         138.8547  138.9328  161.5603 C.ar    1  UNL1        0.2272
     33 N         138.3680  138.2422  162.7997 N.ar    1  UNL1       -0.1767
     34 C         138.1031  138.2021  166.3041 C.3     1  UNL1        0.2542
     35 O         138.7876  137.4146  165.2264 O.3     1  UNL1       -0.4561
     36 O         137.9484  139.0697  160.3729 O.3     1  UNL1       -0.4561
     37 C         137.9102  140.2043  159.3925 C.3     1  UNL1        0.2542
     38 C         143.0317  138.6263  162.0236 C.3     1  UNL1        0.0491
     39 C         144.0140  138.6679  160.8908 C.3     1  UNL1        0.0750
     40 N         143.5566  139.0537  159.5153 N.3     1  UNL1       -0.2702
     41 C         142.7251  138.1024  158.7070 C.3     1  UNL1        0.0897
     42 C         143.9308  140.3910  158.9481 C.3     1  UNL1        0.0897
@<TRIPOS>BOND
     1    34    35    1
     2    35    28    1
     3    28    29   ar
     4    29    30   ar
     5    30    25    1
     6    25    26    1
     7    25    38    1
     8    38    39    1
     9    39    40    1
    10    40    41    1
    11    40    42    1
    12    25     1    1
    13     1    15    1
    14    15    16   ar
    15    16    17   ar
    16    17    21    1
    17    21    22    1
    18    17    18   ar
    19    18    19   ar
    20    19    23    1
    21    23    24    1
    22    19    20   ar
    23     1     2    1
    24     2     3   ar
    25     3     4   ar
    26     4     5   ar
    27     5     6   ar
    28     6     7    1
    29     6     8   ar
    30     8     9   ar
    31     9    10   ar
    32    10    11   ar
    33    11    12   ar
    34    12    13    1
    35    13    14    1
    36    30    31   ar
    37    31    32   ar
    38    32    36    1
    39    36    37    1
    40    32    33   ar
    41    33    28   ar
    42    20    15   ar
    43    12     2   ar
    44    10     4   ar
    45    26    27    1
@<TRIPOS>MOLECULE
*****
 42 45 0 0 0
SMALL
GASTEIGER

@<TRIPOS>ATOM
      1 C         142.2061  141.2180  163.5328 C.3     1  UNL1        0.0777
      2 C         142.4665  141.5250  164.9778 C.ar    1  UNL1        0.0373
      3 C         141.6622  140.8450  166.0458 C.ar    1  UNL1        0.0023
      4 C         141.9227  141.1521  167.4908 C.ar    1  UNL1        0.0181
      5 C         141.1184  140.4720  168.5588 C.ar    1  UNL1        0.0082
      6 C         141.3789  140.7791  170.0037 C.ar    1  UNL1        0.0347
      7 BR        140.5746  140.0990  171.0718 Br      1  UNL1       -0.0490
      8 C         142.4435  141.7662  170.3807 C.ar    1  UNL1        0.0082
      9 C         143.2478  142.4462  169.3126 C.ar    1  UNL1        0.0197
     10 C         142.9873  142.1392  167.8677 C.ar    1  UNL1        0.0844
     11 N         143.7916  142.8192  166.7996 N.ar    1  UNL1       -0.2119
     12 C         143.5312  142.5122  165.3547 C.ar    1  UNL1        0.2211
     13 O         144.3354  143.1922  164.2866 O.3     1  UNL1       -0.4563
     14 C         143.9487  144.5625  163.8146 C.3     1  UNL1        0.2542
     15 C         141.4371  142.1888  162.6865 C.ar    1  UNL1       -0.0117
     16 C         141.9505  142.5718  161.3302 C.ar    1  UNL1        0.0217
     17 C         141.1815  143.5427  160.4839 C.ar    1  UNL1        0.1069
     18 N         139.8991  144.1303  160.9939 N.ar    1  UNL1       -0.2330
     19 C         139.3857  143.7472  162.3503 C.ar    1  UNL1        0.1069
     20 C         140.1547  142.7764  163.1966 C.ar    1  UNL1        0.0217
     21 S         141.6949  143.9257  159.1276 S.3     1  UNL1       -0.0940
     22 C         141.5423  143.1504  157.8525 C.3     1  UNL1        0.0757
     23 S         138.1034  144.3349  162.8604 S.3     1  UNL1       -0.0940
     24 C         137.7311  144.1827  164.3055 C.3     1  UNL1        0.0757
     25 C         142.7147  139.9401  162.9341 C.3     1  UNL1        0.1161
     26 O         144.1153  140.4747  162.9830 O.3     1  UNL1       -0.3820
     27 H         144.7274  139.8109  162.6286 H       1  UNL1        0.2107
     28 C         139.1269  138.9438  161.5612 C.ar    1  UNL1        0.2272
     29 C         140.5276  139.4784  161.6101 C.ar    1  UNL1        0.0559
     30 C         141.3140  139.4055  162.8852 C.ar    1  UNL1        0.0117
     31 C         140.6999  138.7981  164.1115 C.ar    1  UNL1        0.0559
     32 C         139.2992  138.2635  164.0626 C.ar    1  UNL1        0.2272
     33 N         138.5127  138.3364  162.7875 N.ar    1  UNL1       -0.1767
     34 C         138.9872  139.5314  159.0343 C.3     1  UNL1        0.2542
     35 O         138.3404  139.0167  160.2859 O.3     1  UNL1       -0.4561
     36 O         138.6851  137.6561  165.2890 O.3     1  UNL1       -0.4561
     37 C         138.0200  138.3829  166.4201 C.3     1  UNL1        0.2542
     38 C         143.2233  138.6623  162.3355 C.3     1  UNL1        0.0491
     39 C         144.1403  138.7027  161.1492 C.3     1  UNL1        0.0750
     40 N         143.5802  138.9241  159.7754 N.3     1  UNL1       -0.2702
     41 C         143.8131  140.2282  159.0718 C.3     1  UNL1        0.0897
     42 C         142.7872  137.8415  159.1053 C.3     1  UNL1        0.0897
@<TRIPOS>BOND
     1    34    35    1
     2    35    28    1
     3    28    29   ar
     4    29    30   ar
     5    30    25    1
     6    25    26    1
     7    25    38    1
     8    38    39    1
     9    39    40    1
    10    40    41    1
    11    40    42    1
    12    25     1    1
    13     1    15    1
    14    15    16   ar
    15    16    17   ar
    16    17    21    1
    17    21    22    1
    18    17    18   ar
    19    18    19   ar
    20    19    23    1
    21    23    24    1
    22    19    20   ar
    23     1     2    1
    24     2     3   ar
    25     3     4   ar
    26     4     5   ar
    27     5     6   ar
    28     6     7    1
    29     6     8   ar
    30     8     9   ar
    31     9    10   ar
    32    10    11   ar
    33    11    12   ar
    34    12    13    1
    35    13    14    1
    36    30    31   ar
    37    31    32   ar
    38    32    36    1
    39    36    37    1
    40    32    33   ar
    41    33    28   ar
    42    20    15   ar
    43    12     2   ar
    44    10     4   ar
    45    26    27    1
@<TRIPOS>MOLECULE
*****
 42 45 0 0 0
SMALL
GASTEIGER

@<TRIPOS>ATOM
      1 C         142.0531  141.1451  163.2949 C.3     1  UNL1        0.0777
      2 C         142.3990  141.4714  164.7176 C.ar    1  UNL1        0.0373
      3 C         141.6133  140.8601  165.8396 C.ar    1  UNL1        0.0023
      4 C         141.9592  141.1865  167.2623 C.ar    1  UNL1        0.0181
      5 C         141.1735  140.5752  168.3843 C.ar    1  UNL1        0.0082
      6 C         141.5194  140.9015  169.8069 C.ar    1  UNL1        0.0347
      7 BR        140.7337  140.2902  170.9290 Br      1  UNL1       -0.0490
      8 C         142.6510  141.8392  170.1075 C.ar    1  UNL1        0.0082
      9 C         143.4367  142.4505  168.9855 C.ar    1  UNL1        0.0197
     10 C         143.0908  142.1241  167.5629 C.ar    1  UNL1        0.0844
     11 N         143.8765  142.7354  166.4408 N.ar    1  UNL1       -0.2119
     12 C         143.5306  142.4091  165.0182 C.ar    1  UNL1        0.2211
     13 O         144.3163  143.0204  163.8961 O.3     1  UNL1       -0.4563
     14 C         143.9663  144.3900  163.3946 C.3     1  UNL1        0.2542
     15 C         141.2083  142.0899  162.4928 C.ar    1  UNL1       -0.0117
     16 C         139.9919  142.7155  163.1085 C.ar    1  UNL1        0.0217
     17 C         139.1470  143.6604  162.3063 C.ar    1  UNL1        0.1069
     18 N         139.5185  143.9796  160.8886 N.ar    1  UNL1       -0.2330
     19 C         140.7349  143.3540  160.2729 C.ar    1  UNL1        0.1069
     20 C         141.5798  142.4091  161.0750 C.ar    1  UNL1        0.0217
     21 S         137.9307  144.2860  162.9220 S.3     1  UNL1       -0.0940
     22 C         137.5375  144.2617  164.3694 C.3     1  UNL1        0.0757
     23 S         141.1064  143.6732  158.8551 S.3     1  UNL1       -0.0940
     24 C         140.0359  143.8250  157.8153 C.3     1  UNL1        0.0757
     25 C         142.5522  139.8738  162.6745 C.3     1  UNL1        0.1161
     26 O         143.9420  140.4370  162.6384 O.3     1  UNL1       -0.3820
     27 H         144.5458  139.7834  162.2523 H       1  UNL1        0.2107
     28 C         138.8951  138.8378  161.5335 C.ar    1  UNL1        0.2272
     29 C         140.2848  139.4010  161.4974 C.ar    1  UNL1        0.0559
     30 C         141.1624  139.3107  162.7105 C.ar    1  UNL1        0.0117
     31 C         140.6502  138.6571  163.9597 C.ar    1  UNL1        0.0559
     32 C         139.2604  138.0939  163.9957 C.ar    1  UNL1        0.2272
     33 N         138.3828  138.1843  162.7826 N.ar    1  UNL1       -0.1767
     34 C         137.9832  140.1912  159.5118 C.3     1  UNL1        0.2542
     35 O         138.0175  138.9281  160.3203 O.3     1  UNL1       -0.4561
     36 O         138.7482  137.4404  165.2450 O.3     1  UNL1       -0.4561
     37 C         138.0404  138.1068  166.3873 C.3     1  UNL1        0.2542
     38 C         143.0512  138.6026  162.0540 C.3     1  UNL1        0.0491
     39 C         144.0267  138.6562  160.9157 C.3     1  UNL1        0.0750
     40 N         143.5597  139.0495  159.5457 N.3     1  UNL1       -0.2702
     41 C         143.9176  140.3956  158.9890 C.3     1  UNL1        0.0897
     42 C         142.7347  138.0968  158.7322 C.3     1  UNL1        0.0897
@<TRIPOS>BOND
     1    34    35    1
     2    35    28    1
     3    28    29   ar
     4    29    30   ar
     5    30    25    1
     6    25    26    1
     7    25    38    1
     8    38    39    1
     9    39    40    1
    10    40    41    1
    11    40    42    1
    12    25     1    1
    13     1    15    1
    14    15    16   ar
    15    16    17   ar
    16    17    21    1
    17    21    22    1
    18    17    18   ar
    19    18    19   ar
    20    19    23    1
    21    23    24    1
    22    19    20   ar
    23     1     2    1
    24     2     3   ar
    25     3     4   ar
    26     4     5   ar
    27     5     6   ar
    28     6     7    1
    29     6     8   ar
    30     8     9   ar
    31     9    10   ar
    32    10    11   ar
    33    11    12   ar
    34    12    13    1
    35    13    14    1
    36    30    31   ar
    37    31    32   ar
    38    32    36    1
    39    36    37    1
    40    32    33   ar
    41    33    28   ar
    42    20    15   ar
    43    12     2   ar
    44    10     4   ar
    45    26    27    1
@<TRIPOS>MOLECULE
*****
 42 45 0 0 0
SMALL
GASTEIGER

@<TRIPOS>ATOM
      1 C         141.9274  141.1298  162.4829 C.3     1  UNL1        0.0777
      2 C         142.1913  141.4684  163.9202 C.ar    1  UNL1        0.0373
      3 C         141.1489  141.1853  164.9610 C.ar    1  UNL1        0.0023
      4 C         141.4128  141.5239  166.3983 C.ar    1  UNL1        0.0181
      5 C         140.3705  141.2409  167.4391 C.ar    1  UNL1        0.0082
      6 C         140.6344  141.5795  168.8763 C.ar    1  UNL1        0.0347
      7 BR        139.5920  141.2964  169.9172 Br      1  UNL1       -0.0490
      8 C         141.9407  142.2012  169.2727 C.ar    1  UNL1        0.0082
      9 C         142.9831  142.4842  168.2319 C.ar    1  UNL1        0.0197
     10 C         142.7191  142.1456  166.7947 C.ar    1  UNL1        0.0844
     11 N         143.7615  142.4287  165.7538 N.ar    1  UNL1       -0.2119
     12 C         143.4976  142.0901  164.3166 C.ar    1  UNL1        0.2211
     13 O         144.5399  142.3731  163.2757 O.3     1  UNL1       -0.4563
     14 C         145.8757  141.6944  163.3479 C.3     1  UNL1        0.2542
     15 C         141.9649  142.2068  161.4395 C.ar    1  UNL1       -0.0117
     16 C         141.1116  143.4306  161.5940 C.ar    1  UNL1        0.0217
     17 C         141.1491  144.5077  160.5506 C.ar    1  UNL1        0.1069
     18 N         142.0400  144.3608  159.3528 N.ar    1  UNL1       -0.2330
     19 C         142.8933  143.1368  159.1984 C.ar    1  UNL1        0.1069
     20 C         142.8558  142.0599  160.2417 C.ar    1  UNL1        0.0217
     21 S         140.2958  145.7316  160.7051 S.3     1  UNL1       -0.0940
     22 C         139.6378  146.2207  161.9612 C.3     1  UNL1        0.0757
     23 S         143.7842  142.9899  158.0005 S.3     1  UNL1       -0.0940
     24 C         145.1038  142.2882  158.1288 C.3     1  UNL1        0.0757
     25 C         141.6259  139.7141  162.0890 C.3     1  UNL1        0.1161
     26 O         143.0050  139.3028  162.5119 O.3     1  UNL1       -0.3820
     27 H         143.1185  138.3511  162.3630 H       1  UNL1        0.2107
     28 C         138.4037  140.2745  159.8411 C.ar    1  UNL1        0.2272
     29 C         139.7828  139.8632  160.2641 C.ar    1  UNL1        0.0559
     30 C         140.2468  140.1255  161.6661 C.ar    1  UNL1        0.0117
     31 C         139.3317  140.7991  162.6452 C.ar    1  UNL1        0.0559
     32 C         137.9526  141.2105  162.2223 C.ar    1  UNL1        0.2272
     33 N         137.4886  140.9482  160.8203 N.ar    1  UNL1       -0.1767
     34 C         137.6443  141.1600  157.5196 C.3     1  UNL1        0.2542
     35 O         137.9397  140.0121  158.4390 O.3     1  UNL1       -0.4561
     36 O         137.0375  141.8842  163.2016 O.3     1  UNL1       -0.4561
     37 C         137.4225  142.8643  164.2698 C.3     1  UNL1        0.2542
     38 C         141.3245  138.2985  161.6952 C.3     1  UNL1        0.0491
     39 C         141.2318  137.2314  162.7452 C.3     1  UNL1        0.0750
     40 N         140.9254  137.6019  164.1661 N.3     1  UNL1       -0.2702
     41 C         142.0422  137.7921  165.1491 C.3     1  UNL1        0.0897
     42 C         139.5021  137.7822  164.6039 C.3     1  UNL1        0.0897
@<TRIPOS>BOND
     1    34    35    1
     2    35    28    1
     3    28    29   ar
     4    29    30   ar
     5    30    25    1
     6    25    26    1
     7    25    38    1
     8    38    39    1
     9    39    40    1
    10    40    41    1
    11    40    42    1
    12    25     1    1
    13     1    15    1
    14    15    16   ar
    15    16    17   ar
    16    17    21    1
    17    21    22    1
    18    17    18   ar
    19    18    19   ar
    20    19    23    1
    21    23    24    1
    22    19    20   ar
    23     1     2    1
    24     2     3   ar
    25     3     4   ar
    26     4     5   ar
    27     5     6   ar
    28     6     7    1
    29     6     8   ar
    30     8     9   ar
    31     9    10   ar
    32    10    11   ar
    33    11    12   ar
    34    12    13    1
    35    13    14    1
    36    30    31   ar
    37    31    32   ar
    38    32    36    1
    39    36    37    1
    40    32    33   ar
    41    33    28   ar
    42    20    15   ar
    43    12     2   ar
    44    10     4   ar
    45    26    27    1
@<TRIPOS>MOLECULE
*****
 42 45 0 0 0
SMALL
GASTEIGER

@<TRIPOS>ATOM
      1 C         141.9447  141.0847  162.5326 C.3     1  UNL1        0.0777
      2 C         142.1750  141.4361  163.9726 C.ar    1  UNL1        0.0373
      3 C         141.1299  141.1147  164.9995 C.ar    1  UNL1        0.0023
      4 C         141.3602  141.4661  166.4395 C.ar    1  UNL1        0.0181
      5 C         140.3151  141.1446  167.4663 C.ar    1  UNL1        0.0082
      6 C         140.5454  141.4960  168.9062 C.ar    1  UNL1        0.0347
      7 BR        139.5003  141.1745  169.9331 Br      1  UNL1       -0.0490
      8 C         141.8208  142.1689  169.3193 C.ar    1  UNL1        0.0082
      9 C         142.8659  142.4903  168.2925 C.ar    1  UNL1        0.0197
     10 C         142.6356  142.1389  166.8526 C.ar    1  UNL1        0.0844
     11 N         143.6807  142.4604  165.8256 N.ar    1  UNL1       -0.2119
     12 C         143.4504  142.1090  164.3857 C.ar    1  UNL1        0.2211
     13 O         144.4955  142.4305  163.3588 O.3     1  UNL1       -0.4563
     14 C         145.7934  141.6787  163.3489 C.3     1  UNL1        0.2542
     15 C         142.0221  142.1496  161.4791 C.ar    1  UNL1       -0.0117
     16 C         142.9573  141.9887  160.3174 C.ar    1  UNL1        0.0217
     17 C         143.0348  143.0536  159.2638 C.ar    1  UNL1        0.1069
     18 N         142.1771  144.2795  159.3720 N.ar    1  UNL1       -0.2330
     19 C         141.2419  144.4404  160.5338 C.ar    1  UNL1        0.1069
     20 C         141.1645  143.3755  161.5873 C.ar    1  UNL1        0.0217
     21 S         143.9699  142.8927  158.1021 S.3     1  UNL1       -0.0940
     22 C         143.6409  142.3355  156.7488 C.3     1  UNL1        0.0757
     23 S         140.3843  145.6662  160.6419 S.3     1  UNL1       -0.0940
     24 C         139.7835  146.0471  161.9626 C.3     1  UNL1        0.0757
     25 C         141.6370  139.6684  162.1462 C.3     1  UNL1        0.1161
     26 O         143.0015  139.2468  162.6048 O.3     1  UNL1       -0.3820
     27 H         143.1080  138.2924  162.4680 H       1  UNL1        0.2107
     28 C         138.4850  140.2685  159.8106 C.ar    1  UNL1        0.2272
     29 C         139.8495  139.8469  160.2692 C.ar    1  UNL1        0.0559
     30 C         140.2724  140.0900  161.6876 C.ar    1  UNL1        0.0117
     31 C         139.3307  140.7547  162.6475 C.ar    1  UNL1        0.0559
     32 C         137.9662  141.1763  162.1890 C.ar    1  UNL1        0.2272
     33 N         137.5433  140.9332  160.7705 N.ar    1  UNL1       -0.1767
     34 C         139.0948  139.7655  157.3357 C.3     1  UNL1        0.2542
     35 O         138.0621  140.0254  158.3921 O.3     1  UNL1       -0.4561
     36 O         137.0245  141.8410  163.1489 O.3     1  UNL1       -0.4561
     37 C         137.3825  142.7929  164.2515 C.3     1  UNL1        0.2542
     38 C         141.3292  138.2521  161.7598 C.3     1  UNL1        0.0491
     39 C         141.2454  137.1884  162.8140 C.3     1  UNL1        0.0750
     40 N         140.9456  137.5629  164.2352 N.3     1  UNL1       -0.2702
     41 C         142.0671  137.7596  165.2116 C.3     1  UNL1        0.0897
     42 C         139.5241  137.7406  164.6800 C.3     1  UNL1        0.0897
@<TRIPOS>BOND
     1    34    35    1
     2    35    28    1
     3    28    29   ar
     4    29    30   ar
     5    30    25    1
     6    25    26    1
     7    25    38    1
     8    38    39    1
     9    39    40    1
    10    40    41    1
    11    40    42    1
    12    25     1    1
    13     1    15    1
    14    15    16   ar
    15    16    17   ar
    16    17    21    1
    17    21    22    1
    18    17    18   ar
    19    18    19   ar
    20    19    23    1
    21    23    24    1
    22    19    20   ar
    23     1     2    1
    24     2     3   ar
    25     3     4   ar
    26     4     5   ar
    27     5     6   ar
    28     6     7    1
    29     6     8   ar
    30     8     9   ar
    31     9    10   ar
    32    10    11   ar
    33    11    12   ar
    34    12    13    1
    35    13    14    1
    36    30    31   ar
    37    31    32   ar
    38    32    36    1
    39    36    37    1
    40    32    33   ar
    41    33    28   ar
    42    20    15   ar
    43    12     2   ar
    44    10     4   ar
    45    26    27    1
@<TRIPOS>MOLECULE
*****
 42 45 0 0 0
SMALL
GASTEIGER

@<TRIPOS>ATOM
      1 C         142.0025  142.5349  162.5518 C.3     1  UNL1        0.0777
      2 C         142.3572  142.5344  164.0093 C.ar    1  UNL1        0.0373
      3 C         141.2949  142.2893  165.0396 C.ar    1  UNL1        0.0023
      4 C         141.6495  142.2888  166.4971 C.ar    1  UNL1        0.0181
      5 C         140.5872  142.0437  167.5273 C.ar    1  UNL1        0.0082
      6 C         140.9419  142.0431  168.9848 C.ar    1  UNL1        0.0347
      7 BR        139.8795  141.7980  170.0151 Br      1  UNL1       -0.0490
      8 C         142.3588  142.2877  169.4120 C.ar    1  UNL1        0.0082
      9 C         143.4211  142.5328  168.3817 C.ar    1  UNL1        0.0197
     10 C         143.0664  142.5333  166.9243 C.ar    1  UNL1        0.0844
     11 N         144.1287  142.7784  165.8940 N.ar    1  UNL1       -0.2119
     12 C         143.7741  142.7789  164.4365 C.ar    1  UNL1        0.2211
     13 O         144.8364  143.0240  163.4062 O.3     1  UNL1       -0.4563
     14 C         145.7043  141.8929  162.9401 C.3     1  UNL1        0.2542
     15 C         142.1899  141.2917  161.7339 C.ar    1  UNL1       -0.0117
     16 C         141.8369  139.9534  162.3120 C.ar    1  UNL1        0.0217
     17 C         142.0243  138.7100  161.4940 C.ar    1  UNL1        0.1069
     18 N         142.5647  138.8050  160.0980 N.ar    1  UNL1       -0.2330
     19 C         142.9177  140.1434  159.5199 C.ar    1  UNL1        0.1069
     20 C         142.7303  141.3867  160.3378 C.ar    1  UNL1        0.0217
     21 S         141.6712  137.3717  162.0721 S.3     1  UNL1       -0.0940
     22 C         140.9498  137.1066  163.3603 C.3     1  UNL1        0.0757
     23 S         143.4581  140.2384  158.1238 S.3     1  UNL1       -0.0940
     24 C         144.5709  141.1953  157.8139 C.3     1  UNL1        0.0757
     25 C         141.4606  143.7788  161.9123 C.3     1  UNL1        0.1161
     26 O         142.8411  144.1446  161.4537 O.3     1  UNL1       -0.3820
     27 H         142.8083  144.9819  160.9650 H       1  UNL1        0.2107
     28 C         138.0529  143.8119  163.9461 C.ar    1  UNL1        0.2272
     29 C         139.4334  144.1777  163.4876 C.ar    1  UNL1        0.0559
     30 C         140.0800  143.4131  162.3708 C.ar    1  UNL1        0.0117
     31 C         139.3460  142.2826  161.7126 C.ar    1  UNL1        0.0559
     32 C         137.9654  141.9168  162.1712 C.ar    1  UNL1        0.2272
     33 N         137.3189  142.6815  163.2879 N.ar    1  UNL1       -0.1767
     34 C         138.2548  145.2459  166.1032 C.3     1  UNL1        0.2542
     35 O         137.4063  144.5767  165.0630 O.3     1  UNL1       -0.4561
     36 O         137.2314  140.7863  161.5129 O.3     1  UNL1       -0.4561
     37 C         137.7451  139.3988  161.2661 C.3     1  UNL1        0.2542
     38 C         140.9186  145.0227  161.2728 C.3     1  UNL1        0.0491
     39 C         141.3568  145.4076  159.8908 C.3     1  UNL1        0.0750
     40 N         141.1994  144.4384  158.7569 N.3     1  UNL1       -0.2702
     41 C         142.3696  144.1207  157.8739 C.3     1  UNL1        0.0897
     42 C         139.8718  143.7870  158.5059 C.3     1  UNL1        0.0897
@<TRIPOS>BOND
     1    34    35    1
     2    35    28    1
     3    28    29   ar
     4    29    30   ar
     5    30    25    1
     6    25    26    1
     7    25    38    1
     8    38    39    1
     9    39    40    1
    10    40    41    1
    11    40    42    1
    12    25     1    1
    13     1    15    1
    14    15    16   ar
    15    16    17   ar
    16    17    21    1
    17    21    22    1
    18    17    18   ar
    19    18    19   ar
    20    19    23    1
    21    23    24    1
    22    19    20   ar
    23     1     2    1
    24     2     3   ar
    25     3     4   ar
    26     4     5   ar
    27     5     6   ar
    28     6     7    1
    29     6     8   ar
    30     8     9   ar
    31     9    10   ar
    32    10    11   ar
    33    11    12   ar
    34    12    13    1
    35    13    14    1
    36    30    31   ar
    37    31    32   ar
    38    32    36    1
    39    36    37    1
    40    32    33   ar
    41    33    28   ar
    42    20    15   ar
    43    12     2   ar
    44    10     4   ar
    45    26    27    1
@<TRIPOS>MOLECULE
*****
 42 45 0 0 0
SMALL
GASTEIGER

@<TRIPOS>ATOM
      1 C         141.5179  142.3508  162.6587 C.3     1  UNL1        0.0777
      2 C         141.9639  142.3447  164.0909 C.ar    1  UNL1        0.0373
      3 C         140.9669  142.1067  165.1860 C.ar    1  UNL1        0.0023
      4 C         141.4129  142.1006  166.6181 C.ar    1  UNL1        0.0181
      5 C         140.4159  141.8626  167.7132 C.ar    1  UNL1        0.0082
      6 C         140.8620  141.8565  169.1453 C.ar    1  UNL1        0.0347
      7 BR        139.8649  141.6186  170.2404 Br      1  UNL1       -0.0490
      8 C         142.3051  142.0884  169.4823 C.ar    1  UNL1        0.0082
      9 C         143.3022  142.3263  168.3873 C.ar    1  UNL1        0.0197
     10 C         142.8561  142.3324  166.9552 C.ar    1  UNL1        0.0844
     11 N         143.8532  142.5704  165.8600 N.ar    1  UNL1       -0.2119
     12 C         143.4071  142.5765  164.4279 C.ar    1  UNL1        0.2211
     13 O         144.4042  142.8145  163.3328 O.3     1  UNL1       -0.4563
     14 C         145.5938  141.9116  163.1924 C.3     1  UNL1        0.2542
     15 C         142.3276  141.6360  161.6179 C.ar    1  UNL1       -0.0117
     16 C         142.8283  142.3801  160.4156 C.ar    1  UNL1        0.0217
     17 C         143.6381  141.6652  159.3747 C.ar    1  UNL1        0.1069
     18 N         143.9472  140.2064  159.5363 N.ar    1  UNL1       -0.2330
     19 C         143.4465  139.4623  160.7387 C.ar    1  UNL1        0.1069
     20 C         142.6367  140.1771  161.7795 C.ar    1  UNL1        0.0217
     21 S         144.1387  142.4093  158.1724 S.3     1  UNL1       -0.0940
     22 C         145.4731  142.2532  157.5052 C.3     1  UNL1        0.0757
     23 S         143.7556  138.0034  160.9002 S.3     1  UNL1       -0.0940
     24 C         143.1391  136.9989  159.9723 C.3     1  UNL1        0.0757
     25 C         140.2621  143.0717  162.2674 C.3     1  UNL1        0.1161
     26 O         140.8974  144.3792  162.6374 O.3     1  UNL1       -0.3820
     27 H         140.2687  145.1006  162.4785 H       1  UNL1        0.2107
     28 C         138.7595  139.4117  162.5783 C.ar    1  UNL1        0.2272
     29 C         139.3948  140.7192  162.9482 C.ar    1  UNL1        0.0559
     30 C         139.6267  141.7643  161.8975 C.ar    1  UNL1        0.0117
     31 C         139.2233  141.5018  160.4768 C.ar    1  UNL1        0.0559
     32 C         138.5879  140.1944  160.1069 C.ar    1  UNL1        0.2272
     33 N         138.3560  139.1493  161.1576 N.ar    1  UNL1       -0.1767
     34 C         138.6569  138.7212  165.0808 C.3     1  UNL1        0.2542
     35 O         138.5276  138.3667  163.6291 O.3     1  UNL1       -0.4561
     36 O         138.1845  139.9320  158.6862 O.3     1  UNL1       -0.4561
     37 C         138.5806  140.7226  157.4746 C.3     1  UNL1        0.2542
     38 C         139.0062  143.7927  161.8761 C.3     1  UNL1        0.0491
     39 C         138.2944  144.6556  162.8754 C.3     1  UNL1        0.0750
     40 N         138.1225  144.1815  164.2881 N.3     1  UNL1       -0.2702
     41 C         138.7106  144.9698  165.4206 C.3     1  UNL1        0.0897
     42 C         137.3624  142.9190  164.5683 C.3     1  UNL1        0.0897
@<TRIPOS>BOND
     1    34    35    1
     2    35    28    1
     3    28    29   ar
     4    29    30   ar
     5    30    25    1
     6    25    26    1
     7    25    38    1
     8    38    39    1
     9    39    40    1
    10    40    41    1
    11    40    42    1
    12    25     1    1
    13     1    15    1
    14    15    16   ar
    15    16    17   ar
    16    17    21    1
    17    21    22    1
    18    17    18   ar
    19    18    19   ar
    20    19    23    1
    21    23    24    1
    22    19    20   ar
    23     1     2    1
    24     2     3   ar
    25     3     4   ar
    26     4     5   ar
    27     5     6   ar
    28     6     7    1
    29     6     8   ar
    30     8     9   ar
    31     9    10   ar
    32    10    11   ar
    33    11    12   ar
    34    12    13    1
    35    13    14    1
    36    30    31   ar
    37    31    32   ar
    38    32    36    1
    39    36    37    1
    40    32    33   ar
    41    33    28   ar
    42    20    15   ar
    43    12     2   ar
    44    10     4   ar
    45    26    27    1
@<TRIPOS>MOLECULE
*****
 42 45 0 0 0
SMALL
GASTEIGER

@<TRIPOS>ATOM
      1 C         142.0560  142.1788  162.9444 C.3     1  UNL1        0.0777
      2 C         142.3819  142.2916  164.4042 C.ar    1  UNL1        0.0373
      3 C         141.3014  142.1155  165.4296 C.ar    1  UNL1        0.0023
      4 C         141.6272  142.2283  166.8895 C.ar    1  UNL1        0.0181
      5 C         140.5468  142.0521  167.9149 C.ar    1  UNL1        0.0082
      6 C         140.8726  142.1650  169.3747 C.ar    1  UNL1        0.0347
      7 BR        139.7921  141.9888  170.4002 Br      1  UNL1       -0.0490
      8 C         142.2790  142.4539  169.8091 C.ar    1  UNL1        0.0082
      9 C         143.3595  142.6301  168.7837 C.ar    1  UNL1        0.0197
     10 C         143.0336  142.5173  167.3239 C.ar    1  UNL1        0.0844
     11 N         144.1141  142.6934  166.2984 N.ar    1  UNL1       -0.2119
     12 C         143.7882  142.5806  164.8386 C.ar    1  UNL1        0.2211
     13 O         144.8687  142.7567  163.8131 O.3     1  UNL1       -0.4563
     14 C         145.7686  141.6077  163.4669 C.3     1  UNL1        0.2542
     15 C         142.0858  140.8390  162.2706 C.ar    1  UNL1       -0.0117
     16 C         142.6394  140.7097  160.8826 C.ar    1  UNL1        0.0217
     17 C         142.6692  139.3698  160.2088 C.ar    1  UNL1        0.1069
     18 N         142.1454  138.1593  160.9231 N.ar    1  UNL1       -0.2330
     19 C         141.5917  138.2886  162.3112 C.ar    1  UNL1        0.1069
     20 C         141.5620  139.6284  162.9849 C.ar    1  UNL1        0.0217
     21 S         143.2229  139.2405  158.8207 S.3     1  UNL1       -0.0940
     22 C         143.7282  140.3475  157.9436 C.3     1  UNL1        0.0757
     23 S         141.0679  137.0781  163.0255 S.3     1  UNL1       -0.0940
     24 C         141.0646  137.0350  164.5250 C.3     1  UNL1        0.0757
     25 C         141.7004  143.4058  162.1583 C.3     1  UNL1        0.1161
     26 O         143.1539  143.6467  161.8767 O.3     1  UNL1       -0.3820
     27 H         143.2504  144.4467  161.3368 H       1  UNL1        0.2107
     28 C         138.1050  143.6857  163.8151 C.ar    1  UNL1        0.2272
     29 C         139.5585  143.9266  163.5335 C.ar    1  UNL1        0.0559
     30 C         140.2469  143.1649  162.4399 C.ar    1  UNL1        0.0117
     31 C         139.4817  142.1624  161.6278 C.ar    1  UNL1        0.0559
     32 C         138.0282  141.9216  161.9094 C.ar    1  UNL1        0.2272
     33 N         137.3399  142.6832  163.0030 N.ar    1  UNL1       -0.1767
     34 C         138.2263  145.1391  165.9652 C.3     1  UNL1        0.2542
     35 O         137.4167  144.4474  164.9088 O.3     1  UNL1       -0.4561
     36 O         137.2630  140.9190  161.0973 O.3     1  UNL1       -0.4561
     37 C         137.5446  139.4506  160.9774 C.3     1  UNL1        0.2542
     38 C         141.3448  144.6329  161.3722 C.3     1  UNL1        0.0491
     39 C         141.8591  144.8027  159.9735 C.3     1  UNL1        0.0750
     40 N         140.9953  144.4274  158.8060 N.3     1  UNL1       -0.2702
     41 C         140.9163  142.9973  158.3606 C.3     1  UNL1        0.0897
     42 C         140.2105  145.4823  158.0839 C.3     1  UNL1        0.0897
@<TRIPOS>BOND
     1    34    35    1
     2    35    28    1
     3    28    29   ar
     4    29    30   ar
     5    30    25    1
     6    25    26    1
     7    25    38    1
     8    38    39    1
     9    39    40    1
    10    40    41    1
    11    40    42    1
    12    25     1    1
    13     1    15    1
    14    15    16   ar
    15    16    17   ar
    16    17    21    1
    17    21    22    1
    18    17    18   ar
    19    18    19   ar
    20    19    23    1
    21    23    24    1
    22    19    20   ar
    23     1     2    1
    24     2     3   ar
    25     3     4   ar
    26     4     5   ar
    27     5     6   ar
    28     6     7    1
    29     6     8   ar
    30     8     9   ar
    31     9    10   ar
    32    10    11   ar
    33    11    12   ar
    34    12    13    1
    35    13    14    1
    36    30    31   ar
    37    31    32   ar
    38    32    36    1
    39    36    37    1
    40    32    33   ar
    41    33    28   ar
    42    20    15   ar
    43    12     2   ar
    44    10     4   ar
    45    26    27    1
@<TRIPOS>MOLECULE
*****
 42 45 0 0 0
SMALL
GASTEIGER

@<TRIPOS>ATOM
      1 C         142.0302  141.0630  162.6388 C.3     1  UNL1        0.0777
      2 C         142.2421  141.4290  164.0780 C.ar    1  UNL1        0.0373
      3 C         141.1945  141.0960  165.0986 C.ar    1  UNL1        0.0023
      4 C         141.4064  141.4620  166.5378 C.ar    1  UNL1        0.0181
      5 C         140.3588  141.1289  167.5584 C.ar    1  UNL1        0.0082
      6 C         140.5707  141.4949  168.9975 C.ar    1  UNL1        0.0347
      7 BR        139.5231  141.1619  170.0182 Br      1  UNL1       -0.0490
      8 C         141.8302  142.1940  169.4160 C.ar    1  UNL1        0.0082
      9 C         142.8777  142.5270  168.3954 C.ar    1  UNL1        0.0197
     10 C         142.6658  142.1610  166.9563 C.ar    1  UNL1        0.0844
     11 N         143.7134  142.4940  165.9356 N.ar    1  UNL1       -0.2119
     12 C         143.5015  142.1280  164.4965 C.ar    1  UNL1        0.2211
     13 O         144.5491  142.4610  163.4758 O.3     1  UNL1       -0.4563
     14 C         145.7872  141.6208  163.3702 C.3     1  UNL1        0.2542
     15 C         142.1007  142.1208  161.5777 C.ar    1  UNL1       -0.0117
     16 C         143.0035  141.9367  160.3940 C.ar    1  UNL1        0.0217
     17 C         143.0740  142.9946  159.3328 C.ar    1  UNL1        0.1069
     18 N         142.2418  144.2365  159.4554 N.ar    1  UNL1       -0.2330
     19 C         141.3390  144.4206  160.6392 C.ar    1  UNL1        0.1069
     20 C         141.2685  143.3627  161.7003 C.ar    1  UNL1        0.0217
     21 S         143.9767  142.8105  158.1491 S.3     1  UNL1       -0.0940
     22 C         145.4599  142.5871  158.1710 C.3     1  UNL1        0.0757
     23 S         140.5068  145.6625  160.7618 S.3     1  UNL1       -0.0940
     24 C         139.8485  145.9984  162.0671 C.3     1  UNL1        0.0757
     25 C         141.7479  139.6391  162.2608 C.3     1  UNL1        0.1161
     26 O         143.0725  139.2253  162.8300 O.3     1  UNL1       -0.3820
     27 H         143.1859  138.2680  162.7222 H       1  UNL1        0.2107
     28 C         138.1303  141.2438  161.9640 C.ar    1  UNL1        0.2272
     29 C         139.4549  140.8300  162.5333 C.ar    1  UNL1        0.0559
     30 C         140.4232  140.0529  161.6915 C.ar    1  UNL1        0.0117
     31 C         140.0669  139.6897  160.2805 C.ar    1  UNL1        0.0559
     32 C         138.7422  140.1035  159.7112 C.ar    1  UNL1        0.2272
     33 N         137.7739  140.8806  160.5530 N.ar    1  UNL1       -0.1767
     34 C         137.6154  142.6346  164.0972 C.3     1  UNL1        0.2542
     35 O         137.1620  142.0208  162.8059 O.3     1  UNL1       -0.4561
     36 O         138.3859  139.7403  158.3001 O.3     1  UNL1       -0.4561
     37 C         138.6802  140.5340  157.0619 C.3     1  UNL1        0.2542
     38 C         141.4655  138.2153  161.8827 C.3     1  UNL1        0.0491
     39 C         141.0157  137.2371  162.9271 C.3     1  UNL1        0.0750
     40 N         139.7065  137.4400  163.6305 N.3     1  UNL1       -0.2702
     41 C         138.4282  137.4567  162.8459 C.3     1  UNL1        0.0897
     42 C         139.6755  137.6262  165.1186 C.3     1  UNL1        0.0897
@<TRIPOS>BOND
     1    34    35    1
     2    35    28    1
     3    28    29   ar
     4    29    30   ar
     5    30    25    1
     6    25    26    1
     7    25    38    1
     8    38    39    1
     9    39    40    1
    10    40    41    1
    11    40    42    1
    12    25     1    1
    13     1    15    1
    14    15    16   ar
    15    16    17   ar
    16    17    21    1
    17    21    22    1
    18    17    18   ar
    19    18    19   ar
    20    19    23    1
    21    23    24    1
    22    19    20   ar
    23     1     2    1
    24     2     3   ar
    25     3     4   ar
    26     4     5   ar
    27     5     6   ar
    28     6     7    1
    29     6     8   ar
    30     8     9   ar
    31     9    10   ar
    32    10    11   ar
    33    11    12   ar
    34    12    13    1
    35    13    14    1
    36    30    31   ar
    37    31    32   ar
    38    32    36    1
    39    36    37    1
    40    32    33   ar
    41    33    28   ar
    42    20    15   ar
    43    12     2   ar
    44    10     4   ar
    45    26    27    1
