@<TRIPOS>MOLECULE
*****
 31 34 0 0 0
SMALL
GASTEIGER

@<TRIPOS>ATOM
      1 N         139.6127  146.2227  159.6965 N.pl3   1  UNL1       -0.3274
      2 C         140.1930  145.4545  160.8469 C.ar    1  UNL1        0.2148
      3 N         141.6682  145.1892  160.9035 N.ar    1  UNL1       -0.1987
      4 C         142.2486  144.4211  162.0538 C.ar    1  UNL1        0.1388
      5 C         141.3536  143.9184  163.1475 C.ar    1  UNL1        0.0786
      6 S         141.6367  143.1385  164.3972 S.2     1  UNL1       -0.0826
      7 C         140.3364  142.9219  165.1129 C.ar    1  UNL1        0.0311
      8 C         139.2497  143.5678  164.3056 C.ar    1  UNL1        0.0263
      9 C         139.8783  144.1837  163.0909 C.ar    1  UNL1        0.0933
     10 N         139.2981  144.9518  161.9406 N.ar    1  UNL1       -0.2134
     11 H         140.2001  146.5527  158.9786 H       1  UNL1        0.1452
     12 H         138.6444  146.3968  159.6594 H       1  UNL1        0.1452
     13 C         140.1547  142.1882  166.4086 C.ar    1  UNL1        0.0060
     14 C         139.6203  140.7866  166.4082 C.ar    1  UNL1        0.0004
     15 C         139.4386  140.0529  167.7039 C.ar    1  UNL1        0.0039
     16 C         139.7913  140.7208  168.9999 C.ar    1  UNL1        0.0714
     17 C         140.3257  142.1223  169.0002 C.ar    1  UNL1        0.0039
     18 C         140.5074  142.8560  167.7045 C.ar    1  UNL1        0.0004
     19 C         139.6096  139.9870  170.2955 C.3     1  UNL1        0.4186
     20 F         139.4279  139.2533  171.5910 F       1  UNL1       -0.1659
     21 F         138.1527  140.3441  170.2934 F       1  UNL1       -0.1659
     22 F         141.0665  139.6300  170.2975 F       1  UNL1       -0.1659
     23 N         143.7239  144.1558  162.1104 N.pl3   1  UNL1       -0.3191
     24 H         144.3621  144.8936  161.9779 H       1  UNL1        0.1482
     25 C         144.2267  142.7665  162.3689 C.3     1  UNL1        0.0731
     26 C         145.1317  142.5014  163.5354 C.3     1  UNL1        0.0366
     27 C         145.6346  141.1121  163.7939 C.3     1  UNL1        0.0703
     28 N         145.2325  139.9878  162.8859 N.3     1  UNL1       -0.2974
     29 C         144.3275  140.2530  161.7194 C.3     1  UNL1        0.0703
     30 C         143.8246  141.6423  161.4609 C.3     1  UNL1        0.0366
     31 H         144.7665  139.2917  163.4678 H       1  UNL1        0.1232
@<TRIPOS>BOND
     1     1     2    1
     2     2     3   ar
     3     3     4   ar
     4     4    23    1
     5    23    25    1
     6    25    26    1
     7    26    27    1
     8    27    28    1
     9    28    29    1
    10    29    30    1
    11     4     5   ar
    12     5     6   ar
    13     6     7   ar
    14     7    13    1
    15    13    14   ar
    16    14    15   ar
    17    15    16   ar
    18    16    19    1
    19    19    20    1
    20    19    21    1
    21    19    22    1
    22    16    17   ar
    23    17    18   ar
    24     7     8   ar
    25     8     9   ar
    26     9    10   ar
    27    10     2   ar
    28    30    25    1
    29     9     5   ar
    30    18    13   ar
    31     1    11    1
    32     1    12    1
    33    23    24    1
    34    28    31    1
@<TRIPOS>MOLECULE
*****
 31 34 0 0 0
SMALL
GASTEIGER

@<TRIPOS>ATOM
      1 N         144.9037  140.2595  157.4522 N.pl3   1  UNL1       -0.3274
      2 C         144.1092  140.5551  158.6897 C.ar    1  UNL1        0.2148
      3 N         144.0931  141.9436  159.2568 N.ar    1  UNL1       -0.1987
      4 C         143.2986  142.2393  160.4944 C.ar    1  UNL1        0.1388
      5 C         142.5202  141.1463  161.1647 C.ar    1  UNL1        0.0786
      6 S         141.6516  141.1376  162.3876 S.2     1  UNL1       -0.0826
      7 C         141.1308  139.7436  162.5762 C.ar    1  UNL1        0.0311
      8 C         141.6775  138.8908  161.4700 C.ar    1  UNL1        0.0263
      9 C         142.5363  139.7577  160.5976 C.ar    1  UNL1        0.0933
     10 N         143.3307  139.4621  159.3601 N.ar    1  UNL1       -0.2134
     11 H         145.4146  140.9768  157.0122 H       1  UNL1        0.1452
     12 H         144.9142  139.3481  157.0800 H       1  UNL1        0.1452
     13 C         140.2226  139.2832  163.6778 C.ar    1  UNL1        0.0060
     14 C         140.1434  137.8261  164.0247 C.ar    1  UNL1        0.0004
     15 C         139.2352  137.3658  165.1263 C.ar    1  UNL1        0.0039
     16 C         138.4063  138.3626  165.8808 C.ar    1  UNL1        0.0714
     17 C         138.4856  139.8197  165.5339 C.ar    1  UNL1        0.0039
     18 C         139.3938  140.2800  164.4323 C.ar    1  UNL1        0.0004
     19 C         137.4982  137.9022  166.9824 C.3     1  UNL1        0.4186
     20 F         136.5901  137.4418  168.0838 F       1  UNL1       -0.1659
     21 F         137.5268  139.2774  167.5807 F       1  UNL1       -0.1659
     22 F         137.4696  136.5270  166.3839 F       1  UNL1       -0.1659
     23 N         143.2826  143.6279  161.0614 N.pl3   1  UNL1       -0.3191
     24 H         144.0921  143.9967  161.4832 H       1  UNL1        0.1482
     25 C         142.0333  144.4546  160.9857 C.3     1  UNL1        0.0731
     26 C         141.4069  144.9836  162.2418 C.3     1  UNL1        0.0366
     27 C         140.1575  145.8103  162.1663 C.3     1  UNL1        0.0703
     28 N         139.5346  146.1079  160.8346 N.3     1  UNL1       -0.2974
     29 C         140.1610  145.5789  159.5785 C.3     1  UNL1        0.0703
     30 C         141.4103  144.7522  159.6541 C.3     1  UNL1        0.0366
     31 H         139.5050  147.1234  160.7438 H       1  UNL1        0.1232
@<TRIPOS>BOND
     1     1     2    1
     2     2     3   ar
     3     3     4   ar
     4     4    23    1
     5    23    25    1
     6    25    26    1
     7    26    27    1
     8    27    28    1
     9    28    29    1
    10    29    30    1
    11     4     5   ar
    12     5     6   ar
    13     6     7   ar
    14     7    13    1
    15    13    14   ar
    16    14    15   ar
    17    15    16   ar
    18    16    19    1
    19    19    20    1
    20    19    21    1
    21    19    22    1
    22    16    17   ar
    23    17    18   ar
    24     7     8   ar
    25     8     9   ar
    26     9    10   ar
    27    10     2   ar
    28    30    25    1
    29     9     5   ar
    30    18    13   ar
    31     1    11    1
    32     1    12    1
    33    23    24    1
    34    28    31    1
@<TRIPOS>MOLECULE
*****
 31 34 0 0 0
SMALL
GASTEIGER

@<TRIPOS>ATOM
      1 N         142.9661  137.1271  158.5942 N.pl3   1  UNL1       -0.3274
      2 C         143.0242  137.9482  159.8483 C.ar    1  UNL1        0.2148
      3 N         143.8008  139.2313  159.8694 N.ar    1  UNL1       -0.1987
      4 C         143.8589  140.0523  161.1234 C.ar    1  UNL1        0.1388
      5 C         143.1403  139.5902  162.3563 C.ar    1  UNL1        0.0786
      6 S         143.0177  140.1838  163.7284 S.2     1  UNL1       -0.0826
      7 C         142.1653  139.2675  164.5553 C.ar    1  UNL1        0.0311
      8 C         141.7611  138.1076  163.6943 C.ar    1  UNL1        0.0263
      9 C         142.3637  138.3070  162.3352 C.ar    1  UNL1        0.0933
     10 N         142.3057  137.4861  161.0812 N.ar    1  UNL1       -0.2134
     11 H         143.4377  137.4304  157.7850 H       1  UNL1        0.1452
     12 H         142.4564  136.2850  158.5804 H       1  UNL1        0.1452
     13 C         141.7839  139.4746  165.9911 C.ar    1  UNL1        0.0060
     14 C         140.3663  139.8085  166.3500 C.ar    1  UNL1        0.0004
     15 C         139.9850  140.0156  167.7859 C.ar    1  UNL1        0.0039
     16 C         141.0213  139.8890  168.8629 C.ar    1  UNL1        0.0714
     17 C         142.4390  139.5551  168.5041 C.ar    1  UNL1        0.0039
     18 C         142.8203  139.3480  167.0682 C.ar    1  UNL1        0.0004
     19 C         140.6400  140.0961  170.2988 C.3     1  UNL1        0.4186
     20 F         140.2587  140.3033  171.7345 F       1  UNL1       -0.1659
     21 F         142.0685  139.8910  170.7077 F       1  UNL1       -0.1659
     22 F         139.2115  140.3012  169.8897 F       1  UNL1       -0.1659
     23 N         144.6355  141.3355  161.1444 N.pl3   1  UNL1       -0.3191
     24 H         145.5948  141.3339  160.9231 H       1  UNL1        0.1482
     25 C         143.9506  142.6209  161.5028 C.3     1  UNL1        0.0731
     26 C         144.5005  143.4831  162.6002 C.3     1  UNL1        0.0366
     27 C         143.8156  144.7686  162.9586 C.3     1  UNL1        0.0703
     28 N         142.5809  145.1919  162.2196 N.3     1  UNL1       -0.2974
     29 C         142.0310  144.3297  161.1222 C.3     1  UNL1        0.0703
     30 C         142.7159  143.0443  160.7638 C.3     1  UNL1        0.0366
     31 H         142.7829  146.1020  161.8058 H       1  UNL1        0.1232
@<TRIPOS>BOND
     1     1     2    1
     2     2     3   ar
     3     3     4   ar
     4     4    23    1
     5    23    25    1
     6    25    26    1
     7    26    27    1
     8    27    28    1
     9    28    29    1
    10    29    30    1
    11     4     5   ar
    12     5     6   ar
    13     6     7   ar
    14     7    13    1
    15    13    14   ar
    16    14    15   ar
    17    15    16   ar
    18    16    19    1
    19    19    20    1
    20    19    21    1
    21    19    22    1
    22    16    17   ar
    23    17    18   ar
    24     7     8   ar
    25     8     9   ar
    26     9    10   ar
    27    10     2   ar
    28    30    25    1
    29     9     5   ar
    30    18    13   ar
    31     1    11    1
    32     1    12    1
    33    23    24    1
    34    28    31    1
@<TRIPOS>MOLECULE
*****
 31 34 0 0 0
SMALL
GASTEIGER

@<TRIPOS>ATOM
      1 N         141.8743  145.4080  158.7040 N.pl3   1  UNL1       -0.3274
      2 C         141.4082  144.6519  159.9128 C.ar    1  UNL1        0.2148
      3 N         140.1901  143.7808  159.8290 N.ar    1  UNL1       -0.1987
      4 C         139.7240  143.0247  161.0378 C.ar    1  UNL1        0.1388
      5 C         140.4761  143.1399  162.3305 C.ar    1  UNL1        0.0786
      6 S         140.2568  142.5189  163.6781 S.2     1  UNL1       -0.0826
      7 C         141.3394  143.0062  164.5948 C.ar    1  UNL1        0.0311
      8 C         142.2279  143.9285  163.8138 C.ar    1  UNL1        0.0263
      9 C         141.6943  144.0112  162.4143 C.ar    1  UNL1        0.0933
     10 N         142.1604  144.7671  161.2055 N.ar    1  UNL1       -0.2134
     11 H         141.3807  145.3324  157.8555 H       1  UNL1        0.1452
     12 H         142.6739  145.9798  158.7591 H       1  UNL1        0.1452
     13 C         141.5046  142.6363  166.0391 C.ar    1  UNL1        0.0060
     14 C         140.3575  142.8010  166.9914 C.ar    1  UNL1        0.0004
     15 C         140.5227  142.4310  168.4357 C.ar    1  UNL1        0.0039
     16 C         141.8351  141.8964  168.9276 C.ar    1  UNL1        0.0714
     17 C         142.9822  141.7317  167.9753 C.ar    1  UNL1        0.0039
     18 C         142.8169  142.1017  166.5310 C.ar    1  UNL1        0.0004
     19 C         142.0002  141.5264  170.3719 C.3     1  UNL1        0.4186
     20 F         142.1655  141.1565  171.8160 F       1  UNL1       -0.1659
     21 F         140.6350  142.0728  170.6680 F       1  UNL1       -0.1659
     22 F         143.3655  140.9801  170.0757 F       1  UNL1       -0.1659
     23 N         138.5058  142.1535  160.9539 N.pl3   1  UNL1       -0.3191
     24 H         137.6145  142.5612  160.8612 H       1  UNL1        0.1482
     25 C         138.6456  140.6612  161.0113 C.3     1  UNL1        0.0731
     26 C         139.5315  139.9527  160.0299 C.3     1  UNL1        0.0366
     27 C         139.6713  138.4603  160.0873 C.3     1  UNL1        0.0703
     28 N         138.9253  137.6765  161.1260 N.3     1  UNL1       -0.2974
     29 C         138.0394  138.3850  162.1074 C.3     1  UNL1        0.0703
     30 C         137.8995  139.8774  162.0501 C.3     1  UNL1        0.0366
     31 H         139.6235  137.1710  161.6713 H       1  UNL1        0.1232
@<TRIPOS>BOND
     1     1     2    1
     2     2     3   ar
     3     3     4   ar
     4     4    23    1
     5    23    25    1
     6    25    26    1
     7    26    27    1
     8    27    28    1
     9    28    29    1
    10    29    30    1
    11     4     5   ar
    12     5     6   ar
    13     6     7   ar
    14     7    13    1
    15    13    14   ar
    16    14    15   ar
    17    15    16   ar
    18    16    19    1
    19    19    20    1
    20    19    21    1
    21    19    22    1
    22    16    17   ar
    23    17    18   ar
    24     7     8   ar
    25     8     9   ar
    26     9    10   ar
    27    10     2   ar
    28    30    25    1
    29     9     5   ar
    30    18    13   ar
    31     1    11    1
    32     1    12    1
    33    23    24    1
    34    28    31    1
@<TRIPOS>MOLECULE
*****
 31 34 0 0 0
SMALL
GASTEIGER

@<TRIPOS>ATOM
      1 N         136.4013  137.6930  168.4430 N.pl3   1  UNL1       -0.3274
      2 C         137.4607  138.1729  167.4956 C.ar    1  UNL1        0.2148
      3 N         138.4127  139.2518  167.9191 N.ar    1  UNL1       -0.1987
      4 C         139.4721  139.7317  166.9717 C.ar    1  UNL1        0.1388
      5 C         139.5794  139.1326  165.6008 C.ar    1  UNL1        0.0786
      6 S         140.5142  139.4005  164.4587 S.2     1  UNL1       -0.0826
      7 C         140.1399  138.4870  163.3294 C.ar    1  UNL1        0.0311
      8 C         138.9738  137.6546  163.7734 C.ar    1  UNL1        0.0263
      9 C         138.6273  138.0535  165.1773 C.ar    1  UNL1        0.0933
     10 N         137.5680  137.5737  166.1247 N.ar    1  UNL1       -0.2134
     11 H         136.3309  138.0862  169.3428 H       1  UNL1        0.1452
     12 H         135.7765  136.9848  168.1650 H       1  UNL1        0.1452
     13 C         140.8134  138.4181  161.9909 C.ar    1  UNL1        0.0060
     14 C         142.2562  138.0188  161.8970 C.ar    1  UNL1        0.0004
     15 C         142.9297  137.9499  160.5584 C.ar    1  UNL1        0.0039
     16 C         142.1605  138.2803  159.3138 C.ar    1  UNL1        0.0714
     17 C         140.7177  138.6797  159.4077 C.ar    1  UNL1        0.0039
     18 C         140.0442  138.7486  160.7463 C.ar    1  UNL1        0.0004
     19 C         142.8340  138.2114  157.9753 C.3     1  UNL1        0.4186
     20 F         143.5076  138.1425  156.6369 F       1  UNL1       -0.1659
     21 F         142.0380  136.9857  157.6378 F       1  UNL1       -0.1659
     22 F         143.6301  139.4372  158.3129 F       1  UNL1       -0.1659
     23 N         140.4241  140.8108  167.3954 N.pl3   1  UNL1       -0.3191
     24 H         140.6732  141.5234  166.7634 H       1  UNL1        0.1482
     25 C         140.9964  140.8041  168.7818 C.3     1  UNL1        0.0731
     26 C         140.3992  141.6790  169.8439 C.3     1  UNL1        0.0366
     27 C         140.9715  141.6723  171.2304 C.3     1  UNL1        0.0703
     28 N         142.1410  140.7909  171.5548 N.3     1  UNL1       -0.2974
     29 C         142.7382  139.9161  170.4928 C.3     1  UNL1        0.0703
     30 C         142.1660  139.9227  169.1062 C.3     1  UNL1        0.0366
     31 H         141.8443  140.1746  172.3115 H       1  UNL1        0.1232
@<TRIPOS>BOND
     1     1     2    1
     2     2     3   ar
     3     3     4   ar
     4     4    23    1
     5    23    25    1
     6    25    26    1
     7    26    27    1
     8    27    28    1
     9    28    29    1
    10    29    30    1
    11     4     5   ar
    12     5     6   ar
    13     6     7   ar
    14     7    13    1
    15    13    14   ar
    16    14    15   ar
    17    15    16   ar
    18    16    19    1
    19    19    20    1
    20    19    21    1
    21    19    22    1
    22    16    17   ar
    23    17    18   ar
    24     7     8   ar
    25     8     9   ar
    26     9    10   ar
    27    10     2   ar
    28    30    25    1
    29     9     5   ar
    30    18    13   ar
    31     1    11    1
    32     1    12    1
    33    23    24    1
    34    28    31    1
@<TRIPOS>MOLECULE
*****
 31 34 0 0 0
SMALL
GASTEIGER

@<TRIPOS>ATOM
      1 N         137.5586  140.3258  157.8354 N.pl3   1  UNL1       -0.3274
      2 C         138.1620  140.7776  159.1322 C.ar    1  UNL1        0.2148
      3 N         139.0883  141.9571  159.1578 N.ar    1  UNL1       -0.1987
      4 C         139.6917  142.4089  160.4547 C.ar    1  UNL1        0.1388
      5 C         139.3687  141.6812  161.7260 C.ar    1  UNL1        0.0786
      6 S         139.8089  141.8942  163.1440 S.2     1  UNL1       -0.0826
      7 C         139.1546  140.8463  163.9948 C.ar    1  UNL1        0.0311
      8 C         138.3100  139.9857  163.1026 C.ar    1  UNL1        0.0263
      9 C         138.4423  140.5017  161.7003 C.ar    1  UNL1        0.0933
     10 N         137.8390  140.0499  160.4035 N.ar    1  UNL1       -0.2134
     11 H         137.7706  140.8034  157.0010 H       1  UNL1        0.1452
     12 H         136.9506  139.5516  157.8186 H       1  UNL1        0.1452
     13 C         139.3164  140.6870  165.4775 C.ar    1  UNL1        0.0060
     14 C         140.1895  141.6366  166.2430 C.ar    1  UNL1        0.0004
     15 C         140.3512  141.4772  167.7257 C.ar    1  UNL1        0.0039
     16 C         139.6400  140.3682  168.4430 C.ar    1  UNL1        0.0714
     17 C         138.7670  139.4186  167.6774 C.ar    1  UNL1        0.0039
     18 C         138.6052  139.5780  166.1947 C.ar    1  UNL1        0.0004
     19 C         139.8019  140.2089  169.9257 C.3     1  UNL1        0.4186
     20 F         139.9637  140.0496  171.4083 F       1  UNL1       -0.1659
     21 F         140.9698  139.2951  169.7000 F       1  UNL1       -0.1659
     22 F         138.6339  141.1228  170.1513 F       1  UNL1       -0.1659
     23 N         140.6181  143.5884  160.4803 N.pl3   1  UNL1       -0.3191
     24 H         140.2741  144.4889  160.2802 H       1  UNL1        0.1482
     25 C         142.0685  143.3959  160.8107 C.3     1  UNL1        0.0731
     26 C         142.9135  142.4821  159.9734 C.3     1  UNL1        0.0366
     27 C         144.3639  142.2895  160.3037 C.3     1  UNL1        0.0703
     28 N         144.9694  143.0108  161.4713 N.3     1  UNL1       -0.2974
     29 C         144.1244  143.9246  162.3085 C.3     1  UNL1        0.0703
     30 C         142.6740  144.1172  161.9782 C.3     1  UNL1        0.0366
     31 H         145.7368  143.5735  161.1040 H       1  UNL1        0.1232
@<TRIPOS>BOND
     1     1     2    1
     2     2     3   ar
     3     3     4   ar
     4     4    23    1
     5    23    25    1
     6    25    26    1
     7    26    27    1
     8    27    28    1
     9    28    29    1
    10    29    30    1
    11     4     5   ar
    12     5     6   ar
    13     6     7   ar
    14     7    13    1
    15    13    14   ar
    16    14    15   ar
    17    15    16   ar
    18    16    19    1
    19    19    20    1
    20    19    21    1
    21    19    22    1
    22    16    17   ar
    23    17    18   ar
    24     7     8   ar
    25     8     9   ar
    26     9    10   ar
    27    10     2   ar
    28    30    25    1
    29     9     5   ar
    30    18    13   ar
    31     1    11    1
    32     1    12    1
    33    23    24    1
    34    28    31    1
@<TRIPOS>MOLECULE
*****
 31 34 0 0 0
SMALL
GASTEIGER

@<TRIPOS>ATOM
      1 N         141.8631  145.8282  159.1713 N.pl3   1  UNL1       -0.3274
      2 C         141.2034  144.8828  160.1311 C.ar    1  UNL1        0.2148
      3 N         140.0841  144.0001  159.6645 N.ar    1  UNL1       -0.1987
      4 C         139.4244  143.0548  160.6244 C.ar    1  UNL1        0.1388
      5 C         139.8842  142.9922  162.0508 C.ar    1  UNL1        0.0786
      6 S         139.4285  142.1660  163.2169 S.2     1  UNL1       -0.0826
      7 C         140.2663  142.5382  164.4041 C.ar    1  UNL1        0.0311
      8 C         141.2397  143.5944  163.9718 C.ar    1  UNL1        0.0263
      9 C         141.0036  143.8750  162.5174 C.ar    1  UNL1        0.0933
     10 N         141.6632  144.8203  161.5575 N.ar    1  UNL1       -0.2134
     11 H         141.5614  145.8693  158.2351 H       1  UNL1        0.1452
     12 H         142.5978  146.4075  159.4776 H       1  UNL1        0.1452
     13 C         140.1509  141.9563  165.7819 C.ar    1  UNL1        0.0060
     14 C         140.5681  142.7644  166.9747 C.ar    1  UNL1        0.0004
     15 C         140.4527  142.1825  168.3524 C.ar    1  UNL1        0.0039
     16 C         139.9201  140.7925  168.5373 C.ar    1  UNL1        0.0714
     17 C         139.5028  139.9844  167.3445 C.ar    1  UNL1        0.0039
     18 C         139.6182  140.5663  165.9668 C.ar    1  UNL1        0.0004
     19 C         139.8047  140.2106  169.9150 C.3     1  UNL1        0.4186
     20 F         139.6893  139.6288  171.2927 F       1  UNL1       -0.1659
     21 F         138.5885  141.0514  170.1683 F       1  UNL1       -0.1659
     22 F         141.0209  139.3699  169.6617 F       1  UNL1       -0.1659
     23 N         138.3050  142.1720  160.1577 N.pl3   1  UNL1       -0.3191
     24 H         137.3961  142.2996  160.5141 H       1  UNL1        0.1482
     25 C         138.5703  141.0949  159.1481 C.3     1  UNL1        0.0731
     26 C         138.1165  141.2689  157.7290 C.3     1  UNL1        0.0366
     27 C         138.3818  140.1917  156.7194 C.3     1  UNL1        0.0703
     28 N         139.1008  138.9406  157.1288 N.3     1  UNL1       -0.2974
     29 C         139.5546  138.7666  158.5479 C.3     1  UNL1        0.0703
     30 C         139.2893  139.8437  159.5576 C.3     1  UNL1        0.0366
     31 H         139.9334  138.8745  156.5433 H       1  UNL1        0.1232
@<TRIPOS>BOND
     1     1     2    1
     2     2     3   ar
     3     3     4   ar
     4     4    23    1
     5    23    25    1
     6    25    26    1
     7    26    27    1
     8    27    28    1
     9    28    29    1
    10    29    30    1
    11     4     5   ar
    12     5     6   ar
    13     6     7   ar
    14     7    13    1
    15    13    14   ar
    16    14    15   ar
    17    15    16   ar
    18    16    19    1
    19    19    20    1
    20    19    21    1
    21    19    22    1
    22    16    17   ar
    23    17    18   ar
    24     7     8   ar
    25     8     9   ar
    26     9    10   ar
    27    10     2   ar
    28    30    25    1
    29     9     5   ar
    30    18    13   ar
    31     1    11    1
    32     1    12    1
    33    23    24    1
    34    28    31    1
@<TRIPOS>MOLECULE
*****
 31 34 0 0 0
SMALL
GASTEIGER

@<TRIPOS>ATOM
      1 N         139.4935  138.1158  158.0638 N.pl3   1  UNL1       -0.3274
      2 C         139.5592  138.7872  159.4036 C.ar    1  UNL1        0.2148
      3 N         138.8480  140.0889  159.6258 N.ar    1  UNL1       -0.1987
      4 C         138.9137  140.7604  160.9656 C.ar    1  UNL1        0.1388
      5 C         139.6908  140.1300  162.0831 C.ar    1  UNL1        0.0786
      6 S         139.9337  140.5548  163.5010 S.2     1  UNL1       -0.0826
      7 C         140.7952  139.5155  164.1550 C.ar    1  UNL1        0.0311
      8 C         141.0847  138.4485  163.1413 C.ar    1  UNL1        0.0263
      9 C         140.4021  138.8282  161.8608 C.ar    1  UNL1        0.0933
     10 N         140.3363  138.1568  160.5210 N.ar    1  UNL1       -0.2134
     11 H         138.9835  138.5295  157.3304 H       1  UNL1        0.1452
     12 H         139.9604  137.2614  157.9180 H       1  UNL1        0.1452
     13 C         141.2819  139.5392  165.5737 C.ar    1  UNL1        0.0060
     14 C         140.4355  140.1575  166.6467 C.ar    1  UNL1        0.0004
     15 C         140.9222  140.1811  168.0654 C.ar    1  UNL1        0.0039
     16 C         142.2552  139.5865  168.4111 C.ar    1  UNL1        0.0714
     17 C         143.1016  138.9681  167.3381 C.ar    1  UNL1        0.0039
     18 C         142.6148  138.9445  165.9194 C.ar    1  UNL1        0.0004
     19 C         142.7418  139.6101  169.8297 C.3     1  UNL1        0.4186
     20 F         143.2284  139.6338  171.2483 F       1  UNL1       -0.1659
     21 F         142.7725  138.1105  169.8442 F       1  UNL1       -0.1659
     22 F         142.7112  141.1098  169.8152 F       1  UNL1       -0.1659
     23 N         138.2023  142.0622  161.1878 N.pl3   1  UNL1       -0.3191
     24 H         137.2249  142.0753  161.3047 H       1  UNL1        0.1482
     25 C         138.9802  143.3439  161.2320 C.3     1  UNL1        0.0731
     26 C         138.9009  144.2280  162.4412 C.3     1  UNL1        0.0366
     27 C         139.6788  145.5097  162.4855 C.3     1  UNL1        0.0703
     28 N         140.5359  145.9075  161.3205 N.3     1  UNL1       -0.2974
     29 C         140.6152  145.0234  160.1113 C.3     1  UNL1        0.0703
     30 C         139.8373  143.7416  160.0670 C.3     1  UNL1        0.0366
     31 H         141.4870  146.0072  161.6752 H       1  UNL1        0.1232
@<TRIPOS>BOND
     1     1     2    1
     2     2     3   ar
     3     3     4   ar
     4     4    23    1
     5    23    25    1
     6    25    26    1
     7    26    27    1
     8    27    28    1
     9    28    29    1
    10    29    30    1
    11     4     5   ar
    12     5     6   ar
    13     6     7   ar
    14     7    13    1
    15    13    14   ar
    16    14    15   ar
    17    15    16   ar
    18    16    19    1
    19    19    20    1
    20    19    21    1
    21    19    22    1
    22    16    17   ar
    23    17    18   ar
    24     7     8   ar
    25     8     9   ar
    26     9    10   ar
    27    10     2   ar
    28    30    25    1
    29     9     5   ar
    30    18    13   ar
    31     1    11    1
    32     1    12    1
    33    23    24    1
    34    28    31    1
@<TRIPOS>MOLECULE
*****
 31 34 0 0 0
SMALL
GASTEIGER

@<TRIPOS>ATOM
      1 N         137.5479  138.1850  167.2091 N.pl3   1  UNL1       -0.3274
      2 C         138.3369  139.2788  166.5523 C.ar    1  UNL1        0.2148
      3 N         139.3353  140.0655  167.3487 N.ar    1  UNL1       -0.1987
      4 C         140.1242  141.1592  166.6919 C.ar    1  UNL1        0.1388
      5 C         139.9147  141.4662  165.2387 C.ar    1  UNL1        0.0786
      6 S         140.5414  142.4784  164.3262 S.2     1  UNL1       -0.0826
      7 C         139.9302  142.3173  162.9658 C.ar    1  UNL1        0.0311
      8 C         138.9259  141.2055  163.0376 C.ar    1  UNL1        0.0263
      9 C         138.9163  140.6795  164.4423 C.ar    1  UNL1        0.0933
     10 N         138.1274  139.5858  165.0991 N.ar    1  UNL1       -0.2134
     11 H         137.6854  137.9835  168.1629 H       1  UNL1        0.1452
     12 H         136.8926  137.6687  166.6864 H       1  UNL1        0.1452
     13 C         140.2647  143.1260  161.7476 C.ar    1  UNL1        0.0060
     14 C         140.7055  142.4390  160.4891 C.ar    1  UNL1        0.0004
     15 C         141.0399  143.2478  159.2709 C.ar    1  UNL1        0.0039
     16 C         140.9337  144.7435  159.3111 C.ar    1  UNL1        0.0714
     17 C         140.4930  145.4305  160.5696 C.ar    1  UNL1        0.0039
     18 C         140.1585  144.6217  161.7878 C.ar    1  UNL1        0.0004
     19 C         141.2682  145.5522  158.0928 C.3     1  UNL1        0.4186
     20 F         141.6027  146.3608  156.8747 F       1  UNL1       -0.1659
     21 F         139.9178  146.2024  158.1537 F       1  UNL1       -0.1659
     22 F         142.6186  144.9019  158.0321 F       1  UNL1       -0.1659
     23 N         141.1226  141.9459  167.4883 N.pl3   1  UNL1       -0.3191
     24 H         141.5607  142.7323  167.0896 H       1  UNL1        0.1482
     25 C         141.4537  141.5345  168.8923 C.3     1  UNL1        0.0731
     26 C         140.7439  142.1745  170.0484 C.3     1  UNL1        0.0366
     27 C         141.0749  141.7631  171.4524 C.3     1  UNL1        0.0703
     28 N         142.1156  140.7117  171.7002 N.3     1  UNL1       -0.2974
     29 C         142.8253  140.0717  170.5441 C.3     1  UNL1        0.0703
     30 C         142.4944  140.4831  169.1401 C.3     1  UNL1        0.0366
     31 H         141.6582  139.9607  172.2172 H       1  UNL1        0.1232
@<TRIPOS>BOND
     1     1     2    1
     2     2     3   ar
     3     3     4   ar
     4     4    23    1
     5    23    25    1
     6    25    26    1
     7    26    27    1
     8    27    28    1
     9    28    29    1
    10    29    30    1
    11     4     5   ar
    12     5     6   ar
    13     6     7   ar
    14     7    13    1
    15    13    14   ar
    16    14    15   ar
    17    15    16   ar
    18    16    19    1
    19    19    20    1
    20    19    21    1
    21    19    22    1
    22    16    17   ar
    23    17    18   ar
    24     7     8   ar
    25     8     9   ar
    26     9    10   ar
    27    10     2   ar
    28    30    25    1
    29     9     5   ar
    30    18    13   ar
    31     1    11    1
    32     1    12    1
    33    23    24    1
    34    28    31    1
