@<TRIPOS>MOLECULE
*****
 37 41 0 0 0
SMALL
GASTEIGER

@<TRIPOS>ATOM
      1 N         141.1828  145.6296  159.6141 N.am    1  UNL1       -0.3004
      2 C         140.2619  145.2128  158.5058 C.2     1  UNL1        0.2482
      3 O         139.3575  144.0299  158.6870 O.2     1  UNL1       -0.2701
      4 H         141.7764  146.4059  159.4951 H       1  UNL1        0.1499
      5 C         140.2455  145.9788  157.2163 C.ar    1  UNL1        0.0823
      6 C         139.6577  147.3581  157.1708 C.ar    1  UNL1        0.0260
      7 C         139.6412  148.1242  155.8813 C.ar    1  UNL1        0.0843
      8 N         139.0534  149.5035  155.8358 N.2     1  UNL1       -0.2491
      9 C         139.0369  150.2696  154.5462 C.2     1  UNL1        0.0664
     10 C         138.4491  151.6489  154.5008 C.3     1  UNL1        0.0718
     11 C         138.4327  152.4149  153.2113 C.2     1  UNL1       -0.0198
     12 C         139.0040  151.8017  151.9672 C.2     1  UNL1       -0.0040
     13 C         139.5918  150.4225  152.0127 C.2     1  UNL1        0.0041
     14 C         139.6083  149.6564  153.3022 C.2     1  UNL1        0.0528
     15 C         140.1961  148.2771  153.3478 C.2     1  UNL1        0.1982
     16 O         140.7674  147.6639  152.1037 O.2     1  UNL1       -0.2865
     17 C         140.2126  147.5110  154.6372 C.ar    1  UNL1        0.0588
     18 C         140.8004  146.1317  154.6828 C.ar    1  UNL1        0.0345
     19 C         140.8168  145.3656  155.9723 C.ar    1  UNL1        0.1446
     20 F         141.4046  143.9864  156.0177 F       1  UNL1       -0.2040
     21 C         141.1993  144.8635  160.9036 C.3     1  UNL1        0.0775
     22 C         142.2768  143.9725  160.3605 C.3     1  UNL1        0.0243
     23 C         140.1217  145.7545  161.4466 C.3     1  UNL1        0.0243
     24 C         141.2486  142.5653  164.7721 C.ar    1  UNL1        0.1318
     25 C         142.4465  143.3697  164.3624 C.ar    1  UNL1        0.0341
     26 C         142.4301  144.1358  163.0728 C.ar    1  UNL1        0.0017
     27 C         141.2157  144.0975  162.1931 C.ar    1  UNL1        0.0130
     28 C         140.0178  143.2930  162.6029 C.ar    1  UNL1        0.0975
     29 N         140.0342  142.5270  163.8924 N.ar    1  UNL1       -0.2294
     30 N         141.2977  140.2670  168.6406 N.3     1  UNL1       -0.2698
     31 C         142.5866  140.7171  168.0193 C.3     1  UNL1        0.0939
     32 C         142.5702  141.4832  166.7298 C.3     1  UNL1        0.1095
     33 N         141.2650  141.7992  166.0617 N.pl3   1  UNL1       -0.2904
     34 C         139.9761  141.3490  166.6830 C.3     1  UNL1        0.1095
     35 C         139.9924  140.5829  167.9725 C.3     1  UNL1        0.0939
     36 C         142.5368  138.7286  170.3282 C.3     1  UNL1        0.0188
     37 C         141.3141  139.5009  169.9302 C.3     1  UNL1        0.0722
@<TRIPOS>BOND
     1    36    37    1
     2    37    30    1
     3    30    31    1
     4    31    32    1
     5    32    33    1
     6    33    24    1
     7    24    25   ar
     8    25    26   ar
     9    26    27   ar
    10    27    21    1
    11    21    22    1
    12    21    23    1
    13    21     1    1
    14     1     2   am
    15     2     3    2
    16     2     5    1
    17     5     6   ar
    18     6     7   ar
    19     7     8    1
    20     8     9    2
    21     9    10    1
    22    10    11    1
    23    11    12    2
    24    12    13    1
    25    13    14    2
    26    14    15    1
    27    15    16    2
    28    15    17    1
    29    17    18   ar
    30    18    19   ar
    31    19    20    1
    32    27    28   ar
    33    28    29   ar
    34    33    34    1
    35    34    35    1
    36    35    30    1
    37    29    24   ar
    38    19     5   ar
    39    17     7   ar
    40    14     9    1
    41     1     4    1
@<TRIPOS>MOLECULE
*****
 37 41 0 0 0
SMALL
GASTEIGER

@<TRIPOS>ATOM
      1 N         140.8715  140.2979  154.5200 N.am    1  UNL1       -0.3004
      2 C         140.6682  139.4183  155.7180 C.2     1  UNL1        0.2482
      3 O         140.1863  140.0098  157.0095 O.2     1  UNL1       -0.2701
      4 H         141.1878  139.9097  153.6723 H       1  UNL1        0.1499
      5 C         140.9467  137.9474  155.6245 C.ar    1  UNL1        0.0823
      6 C         142.0033  137.3276  156.4901 C.ar    1  UNL1        0.0260
      7 C         142.2818  135.8567  156.3966 C.ar    1  UNL1        0.0843
      8 N         143.3385  135.2369  157.2622 N.2     1  UNL1       -0.2491
      9 C         143.6170  133.7659  157.1687 C.2     1  UNL1        0.0664
     10 C         144.6737  133.1461  158.0343 C.3     1  UNL1        0.0718
     11 C         144.9521  131.6752  157.9407 C.2     1  UNL1       -0.0198
     12 C         144.1740  130.8241  156.9816 C.2     1  UNL1       -0.0040
     13 C         143.1173  131.4438  156.1160 C.2     1  UNL1        0.0041
     14 C         142.8388  132.9147  156.2095 C.2     1  UNL1        0.0528
     15 C         141.7822  133.5346  155.3438 C.2     1  UNL1        0.1982
     16 O         141.0040  132.6834  154.3847 O.2     1  UNL1       -0.2865
     17 C         141.5037  135.0055  155.4374 C.ar    1  UNL1        0.0588
     18 C         140.4470  135.6253  154.5717 C.ar    1  UNL1        0.0345
     19 C         140.1685  137.0963  154.6653 C.ar    1  UNL1        0.1446
     20 F         139.1119  137.7160  153.7997 F       1  UNL1       -0.2040
     21 C         140.5931  141.7688  154.6136 C.3     1  UNL1        0.0775
     22 C         142.0294  142.0183  154.9663 C.3     1  UNL1        0.0243
     23 C         139.1567  141.5193  154.2608 C.3     1  UNL1        0.0243
     24 C         139.7576  146.1816  154.8942 C.ar    1  UNL1        0.1318
     25 C         140.9411  145.6905  154.1145 C.ar    1  UNL1        0.0341
     26 C         141.2196  144.2195  154.0209 C.ar    1  UNL1        0.0017
     27 C         140.3146  143.2397  154.7071 C.ar    1  UNL1        0.0130
     28 C         139.1310  143.7309  155.4869 C.ar    1  UNL1        0.0975
     29 N         138.8525  145.2018  155.5805 N.ar    1  UNL1       -0.2294
     30 N         138.9219  150.5944  155.1751 N.3     1  UNL1       -0.2698
     31 C         139.6424  150.0420  153.9810 C.3     1  UNL1        0.0939
     32 C         139.9209  148.5711  153.8874 C.3     1  UNL1        0.1095
     33 N         139.4790  147.6526  154.9878 N.pl3   1  UNL1       -0.2904
     34 C         138.7586  148.2050  156.1819 C.3     1  UNL1        0.1095
     35 C         138.4800  149.6759  156.2755 C.3     1  UNL1        0.0939
     36 C         138.4049  152.8644  154.0218 C.3     1  UNL1        0.0188
     37 C         138.6434  152.0654  155.2686 C.3     1  UNL1        0.0722
@<TRIPOS>BOND
     1    36    37    1
     2    37    30    1
     3    30    31    1
     4    31    32    1
     5    32    33    1
     6    33    24    1
     7    24    25   ar
     8    25    26   ar
     9    26    27   ar
    10    27    21    1
    11    21    22    1
    12    21    23    1
    13    21     1    1
    14     1     2   am
    15     2     3    2
    16     2     5    1
    17     5     6   ar
    18     6     7   ar
    19     7     8    1
    20     8     9    2
    21     9    10    1
    22    10    11    1
    23    11    12    2
    24    12    13    1
    25    13    14    2
    26    14    15    1
    27    15    16    2
    28    15    17    1
    29    17    18   ar
    30    18    19   ar
    31    19    20    1
    32    27    28   ar
    33    28    29   ar
    34    33    34    1
    35    34    35    1
    36    35    30    1
    37    29    24   ar
    38    19     5   ar
    39    17     7   ar
    40    14     9    1
    41     1     4    1
@<TRIPOS>MOLECULE
*****
 37 41 0 0 0
SMALL
GASTEIGER

@<TRIPOS>ATOM
      1 N         142.3347  141.2956  154.8936 N.am    1  UNL1       -0.3004
      2 C         140.9678  141.9035  154.7838 C.2     1  UNL1        0.2482
      3 O         139.7497  141.0511  154.9830 O.2     1  UNL1       -0.2701
      4 H         143.1342  141.8551  154.7628 H       1  UNL1        0.1499
      5 C         140.8189  143.3638  154.4749 C.ar    1  UNL1        0.0823
      6 C         140.1173  144.2678  155.4447 C.ar    1  UNL1        0.0260
      7 C         139.9684  145.7281  155.1358 C.ar    1  UNL1        0.0843
      8 N         139.2667  146.6321  156.1055 N.2     1  UNL1       -0.2491
      9 C         139.1179  148.0924  155.7966 C.2     1  UNL1        0.0664
     10 C         138.4162  148.9964  156.7663 C.3     1  UNL1        0.0718
     11 C         138.2674  150.4567  156.4574 C.2     1  UNL1       -0.0198
     12 C         138.8202  151.0129  155.1788 C.2     1  UNL1       -0.0040
     13 C         139.5218  150.1089  154.2090 C.2     1  UNL1        0.0041
     14 C         139.6707  148.6487  154.5180 C.2     1  UNL1        0.0528
     15 C         140.3724  147.7446  153.5482 C.2     1  UNL1        0.1982
     16 O         140.9252  148.3009  152.2695 O.2     1  UNL1       -0.2865
     17 C         140.5212  146.2844  153.8571 C.ar    1  UNL1        0.0588
     18 C         141.2229  145.3803  152.8874 C.ar    1  UNL1        0.0345
     19 C         141.3717  143.9201  153.1963 C.ar    1  UNL1        0.1446
     20 F         142.0734  143.0161  152.2265 F       1  UNL1       -0.2040
     21 C         142.4835  139.8354  155.2025 C.3     1  UNL1        0.0775
     22 C         142.4444  139.5212  153.7363 C.3     1  UNL1        0.0243
     23 C         142.5227  140.1496  156.6687 C.3     1  UNL1        0.0243
     24 C         142.9300  135.4546  156.1293 C.ar    1  UNL1        0.1318
     25 C         144.1120  136.2440  155.6500 C.ar    1  UNL1        0.0341
     26 C         143.9632  137.7043  155.3411 C.ar    1  UNL1        0.0017
     27 C         142.6324  138.3752  155.5114 C.ar    1  UNL1        0.0130
     28 C         141.4504  137.5856  155.9907 C.ar    1  UNL1        0.0975
     29 N         141.5992  136.1254  156.2996 N.ar    1  UNL1       -0.2294
     30 N         143.3765  131.0738  157.0561 N.3     1  UNL1       -0.2698
     31 C         142.2797  131.5396  156.1450 C.3     1  UNL1        0.0939
     32 C         142.1309  132.9999  155.8361 C.3     1  UNL1        0.1095
     33 N         143.0788  133.9942  156.4382 N.pl3   1  UNL1       -0.2904
     34 C         144.1756  133.5284  157.3493 C.3     1  UNL1        0.1095
     35 C         144.3244  132.0681  157.6583 C.3     1  UNL1        0.0939
     36 C         144.5003  129.1640  158.4125 C.3     1  UNL1        0.0188
     37 C         143.5253  129.6134  157.3651 C.3     1  UNL1        0.0722
@<TRIPOS>BOND
     1    36    37    1
     2    37    30    1
     3    30    31    1
     4    31    32    1
     5    32    33    1
     6    33    24    1
     7    24    25   ar
     8    25    26   ar
     9    26    27   ar
    10    27    21    1
    11    21    22    1
    12    21    23    1
    13    21     1    1
    14     1     2   am
    15     2     3    2
    16     2     5    1
    17     5     6   ar
    18     6     7   ar
    19     7     8    1
    20     8     9    2
    21     9    10    1
    22    10    11    1
    23    11    12    2
    24    12    13    1
    25    13    14    2
    26    14    15    1
    27    15    16    2
    28    15    17    1
    29    17    18   ar
    30    18    19   ar
    31    19    20    1
    32    27    28   ar
    33    28    29   ar
    34    33    34    1
    35    34    35    1
    36    35    30    1
    37    29    24   ar
    38    19     5   ar
    39    17     7   ar
    40    14     9    1
    41     1     4    1
@<TRIPOS>MOLECULE
*****
 37 41 0 0 0
SMALL
GASTEIGER

@<TRIPOS>ATOM
      1 N         140.4637  136.4728  156.2817 N.am    1  UNL1       -0.3004
      2 C         141.7947  135.8842  155.9183 C.2     1  UNL1        0.2482
      3 O         142.9313  136.7829  155.5303 O.2     1  UNL1       -0.2701
      4 H         139.7177  135.8830  156.5364 H       1  UNL1        0.1499
      5 C         141.9892  134.3971  155.9431 C.ar    1  UNL1        0.0823
      6 C         141.1616  133.5177  155.0533 C.ar    1  UNL1        0.0260
      7 C         141.3560  132.0305  155.0780 C.ar    1  UNL1        0.0843
      8 N         140.5284  131.1511  154.1882 N.2     1  UNL1       -0.2491
      9 C         140.7228  129.6639  154.2129 C.2     1  UNL1        0.0664
     10 C         139.8953  128.7845  153.3231 C.3     1  UNL1        0.0718
     11 C         140.0897  127.2974  153.3478 C.2     1  UNL1       -0.0198
     12 C         141.1116  126.6897  154.2623 C.2     1  UNL1       -0.0040
     13 C         141.9392  127.5691  155.1521 C.2     1  UNL1        0.0041
     14 C         141.7448  129.0562  155.1274 C.2     1  UNL1        0.0528
     15 C         142.5724  129.9357  156.0172 C.2     1  UNL1        0.1982
     16 O         143.5943  129.3280  156.9317 O.2     1  UNL1       -0.2865
     17 C         142.3779  131.4228  155.9925 C.ar    1  UNL1        0.0588
     18 C         143.2055  132.3023  156.8823 C.ar    1  UNL1        0.0345
     19 C         143.0111  133.7894  156.8575 C.ar    1  UNL1        0.1446
     20 F         143.8387  134.6688  157.7473 F       1  UNL1       -0.2040
     21 C         140.2693  137.9599  156.2569 C.3     1  UNL1        0.0775
     22 C         139.7694  137.8711  154.8455 C.3     1  UNL1        0.0243
     23 C         140.7692  138.0487  157.6684 C.3     1  UNL1        0.0243
     24 C         139.6860  142.4213  156.1828 C.ar    1  UNL1        0.1318
     25 C         141.0579  141.8413  156.0062 C.ar    1  UNL1        0.0341
     26 C         141.2524  140.3541  156.0309 C.ar    1  UNL1        0.0017
     27 C         140.0749  139.4470  156.2322 C.ar    1  UNL1        0.0130
     28 C         138.7028  140.0271  156.4089 C.ar    1  UNL1        0.0975
     29 N         138.5084  141.5142  156.3841 N.ar    1  UNL1       -0.2294
     30 N         139.1025  146.8827  156.1086 N.3     1  UNL1       -0.2698
     31 C         140.0756  146.2695  157.0714 C.3     1  UNL1        0.0939
     32 C         140.2701  144.7824  157.0962 C.3     1  UNL1        0.1095
     33 N         139.4915  143.9085  156.1581 N.pl3   1  UNL1       -0.2904
     34 C         138.5184  144.5217  155.1952 C.3     1  UNL1        0.1095
     35 C         138.3239  146.0088  155.1705 C.3     1  UNL1        0.0939
     36 C         139.2486  149.1504  154.8491 C.3     1  UNL1        0.0188
     37 C         138.9081  148.3699  156.0839 C.3     1  UNL1        0.0722
@<TRIPOS>BOND
     1    36    37    1
     2    37    30    1
     3    30    31    1
     4    31    32    1
     5    32    33    1
     6    33    24    1
     7    24    25   ar
     8    25    26   ar
     9    26    27   ar
    10    27    21    1
    11    21    22    1
    12    21    23    1
    13    21     1    1
    14     1     2   am
    15     2     3    2
    16     2     5    1
    17     5     6   ar
    18     6     7   ar
    19     7     8    1
    20     8     9    2
    21     9    10    1
    22    10    11    1
    23    11    12    2
    24    12    13    1
    25    13    14    2
    26    14    15    1
    27    15    16    2
    28    15    17    1
    29    17    18   ar
    30    18    19   ar
    31    19    20    1
    32    27    28   ar
    33    28    29   ar
    34    33    34    1
    35    34    35    1
    36    35    30    1
    37    29    24   ar
    38    19     5   ar
    39    17     7   ar
    40    14     9    1
    41     1     4    1
@<TRIPOS>MOLECULE
*****
 37 41 0 0 0
SMALL
GASTEIGER

@<TRIPOS>ATOM
      1 N         144.4487  142.6365  159.9243 N.am    1  UNL1       -0.3004
      2 C         144.0017  141.9418  158.6723 C.2     1  UNL1        0.2482
      3 O         142.8491  140.9828  158.7174 O.2     1  UNL1       -0.2701
      4 H         145.2052  143.2659  159.8947 H       1  UNL1        0.1499
      5 C         144.7072  142.2060  157.3752 C.ar    1  UNL1        0.0823
      6 C         146.1854  141.9764  157.2652 C.ar    1  UNL1        0.0260
      7 C         146.8909  142.2406  155.9681 C.ar    1  UNL1        0.0843
      8 N         148.3691  142.0110  155.8581 N.2     1  UNL1       -0.2491
      9 C         149.0747  142.2752  154.5609 C.2     1  UNL1        0.0664
     10 C         150.5529  142.0456  154.4509 C.3     1  UNL1        0.0718
     11 C         151.2584  142.3098  153.1539 C.2     1  UNL1       -0.0198
     12 C         150.4857  142.8036  151.9668 C.2     1  UNL1       -0.0040
     13 C         149.0075  143.0332  152.0768 C.2     1  UNL1        0.0041
     14 C         148.3020  142.7690  153.3739 C.2     1  UNL1        0.0528
     15 C         146.8237  142.9986  153.4840 C.2     1  UNL1        0.1982
     16 O         146.0510  143.4924  152.2969 O.2     1  UNL1       -0.2865
     17 C         146.1182  142.7344  154.7810 C.ar    1  UNL1        0.0588
     18 C         144.6399  142.9640  154.8911 C.ar    1  UNL1        0.0345
     19 C         143.9345  142.6998  156.1882 C.ar    1  UNL1        0.1446
     20 F         142.4562  142.9294  156.2982 F       1  UNL1       -0.2040
     21 C         143.7432  142.3723  161.2214 C.3     1  UNL1        0.0775
     22 C         144.6855  141.2399  161.5033 C.3     1  UNL1        0.0243
     23 C         142.8009  143.5048  160.9395 C.3     1  UNL1        0.0243
     24 C         141.6267  141.5797  165.1126 C.ar    1  UNL1        0.1318
     25 C         143.0030  142.1759  165.1154 C.ar    1  UNL1        0.0341
     26 C         143.7086  142.4402  163.8183 C.ar    1  UNL1        0.0017
     27 C         143.0377  142.1081  162.5184 C.ar    1  UNL1        0.0130
     28 C         141.6613  141.5118  162.5157 C.ar    1  UNL1        0.0975
     29 N         140.9558  141.2476  163.8127 N.ar    1  UNL1       -0.2294
     30 N         139.5100  140.7869  169.0038 N.3     1  UNL1       -0.2698
     31 C         140.4347  141.9613  168.8787 C.3     1  UNL1        0.0939
     32 C         141.1403  142.2256  167.5817 C.3     1  UNL1        0.1095
     33 N         140.9211  141.3154  166.4097 N.pl3   1  UNL1       -0.2904
     34 C         139.9963  140.1410  166.5348 C.3     1  UNL1        0.1095
     35 C         139.2908  139.8768  167.8318 C.3     1  UNL1        0.0939
     36 C         137.6596  139.5546  170.3483 C.3     1  UNL1        0.0188
     37 C         138.8044  140.5226  170.3009 C.3     1  UNL1        0.0722
@<TRIPOS>BOND
     1    36    37    1
     2    37    30    1
     3    30    31    1
     4    31    32    1
     5    32    33    1
     6    33    24    1
     7    24    25   ar
     8    25    26   ar
     9    26    27   ar
    10    27    21    1
    11    21    22    1
    12    21    23    1
    13    21     1    1
    14     1     2   am
    15     2     3    2
    16     2     5    1
    17     5     6   ar
    18     6     7   ar
    19     7     8    1
    20     8     9    2
    21     9    10    1
    22    10    11    1
    23    11    12    2
    24    12    13    1
    25    13    14    2
    26    14    15    1
    27    15    16    2
    28    15    17    1
    29    17    18   ar
    30    18    19   ar
    31    19    20    1
    32    27    28   ar
    33    28    29   ar
    34    33    34    1
    35    34    35    1
    36    35    30    1
    37    29    24   ar
    38    19     5   ar
    39    17     7   ar
    40    14     9    1
    41     1     4    1
@<TRIPOS>MOLECULE
*****
 37 41 0 0 0
SMALL
GASTEIGER

@<TRIPOS>ATOM
      1 N         140.5466  136.3591  156.0875 N.am    1  UNL1       -0.3004
      2 C         141.7529  135.7742  155.4145 C.2     1  UNL1        0.2482
      3 O         142.7477  136.6745  154.7437 O.2     1  UNL1       -0.2701
      4 H         139.8936  135.7682  156.5277 H       1  UNL1        0.1499
      5 C         141.9643  134.2893  155.4122 C.ar    1  UNL1        0.0823
      6 C         142.7768  133.6458  156.4965 C.ar    1  UNL1        0.0260
      7 C         142.9883  132.1607  156.4943 C.ar    1  UNL1        0.0843
      8 N         143.8008  131.5172  157.5786 N.2     1  UNL1       -0.2491
      9 C         144.0122  130.0322  157.5764 C.2     1  UNL1        0.0664
     10 C         144.8247  129.3887  158.6607 C.3     1  UNL1        0.0718
     11 C         145.0361  127.9037  158.6585 C.2     1  UNL1       -0.0198
     12 C         144.4351  127.0622  157.5719 C.2     1  UNL1       -0.0040
     13 C         143.6226  127.7057  156.4876 C.2     1  UNL1        0.0041
     14 C         143.4112  129.1907  156.4899 C.2     1  UNL1        0.0528
     15 C         142.5986  129.8342  155.4055 C.2     1  UNL1        0.1982
     16 O         141.9976  128.9927  154.3190 O.2     1  UNL1       -0.2865
     17 C         142.3872  131.3192  155.4078 C.ar    1  UNL1        0.0588
     18 C         141.5747  131.9627  154.3234 C.ar    1  UNL1        0.0345
     19 C         141.3633  133.4477  154.3257 C.ar    1  UNL1        0.1446
     20 F         140.5508  134.0912  153.2414 F       1  UNL1       -0.2040
     21 C         140.3351  137.8441  156.0897 C.3     1  UNL1        0.0775
     22 C         141.1169  137.9534  157.3652 C.3     1  UNL1        0.0243
     23 C         139.5534  137.7347  154.8142 C.3     1  UNL1        0.0243
     24 C         139.7009  142.2991  156.0964 C.ar    1  UNL1        0.1318
     25 C         138.6265  141.3879  156.6113 C.ar    1  UNL1        0.0341
     26 C         138.8379  139.9028  156.6091 C.ar    1  UNL1        0.0017
     27 C         140.1237  139.3291  156.0919 C.ar    1  UNL1        0.0130
     28 C         141.1982  140.2404  155.5770 C.ar    1  UNL1        0.0975
     29 N         140.9867  141.7254  155.5792 N.ar    1  UNL1       -0.2294
     30 N         139.0668  146.7542  156.1031 N.3     1  UNL1       -0.2698
     31 C         138.2706  145.8847  155.1757 C.3     1  UNL1        0.0939
     32 C         138.4819  144.3997  155.1735 C.3     1  UNL1        0.1095
     33 N         139.4895  143.7842  156.0986 N.pl3   1  UNL1       -0.2904
     34 C         140.2857  144.6537  157.0260 C.3     1  UNL1        0.1095
     35 C         140.0743  146.1387  157.0283 C.3     1  UNL1        0.0939
     36 C         139.2260  149.0514  154.8999 C.3     1  UNL1        0.0188
     37 C         138.8554  148.2393  156.1054 C.3     1  UNL1        0.0722
@<TRIPOS>BOND
     1    36    37    1
     2    37    30    1
     3    30    31    1
     4    31    32    1
     5    32    33    1
     6    33    24    1
     7    24    25   ar
     8    25    26   ar
     9    26    27   ar
    10    27    21    1
    11    21    22    1
    12    21    23    1
    13    21     1    1
    14     1     2   am
    15     2     3    2
    16     2     5    1
    17     5     6   ar
    18     6     7   ar
    19     7     8    1
    20     8     9    2
    21     9    10    1
    22    10    11    1
    23    11    12    2
    24    12    13    1
    25    13    14    2
    26    14    15    1
    27    15    16    2
    28    15    17    1
    29    17    18   ar
    30    18    19   ar
    31    19    20    1
    32    27    28   ar
    33    28    29   ar
    34    33    34    1
    35    34    35    1
    36    35    30    1
    37    29    24   ar
    38    19     5   ar
    39    17     7   ar
    40    14     9    1
    41     1     4    1
@<TRIPOS>MOLECULE
*****
 37 41 0 0 0
SMALL
GASTEIGER

@<TRIPOS>ATOM
      1 N         141.0812  139.6999  160.4861 N.am    1  UNL1       -0.3004
      2 C         142.5495  139.4760  160.2755 C.2     1  UNL1        0.2482
      3 O         143.4263  139.1098  161.4361 O.2     1  UNL1       -0.2701
      4 H         140.5057  139.9403  159.7243 H       1  UNL1        0.1499
      5 C         143.1408  139.6184  158.9044 C.ar    1  UNL1        0.0823
      6 C         144.1678  140.6784  158.6370 C.ar    1  UNL1        0.0260
      7 C         144.7592  140.8208  157.2658 C.ar    1  UNL1        0.0843
      8 N         145.7863  141.8808  156.9984 N.2     1  UNL1       -0.2491
      9 C         146.3777  142.0232  155.6272 C.2     1  UNL1        0.0664
     10 C         147.4048  143.0832  155.3598 C.3     1  UNL1        0.0718
     11 C         147.9961  143.2255  153.9887 C.2     1  UNL1       -0.0198
     12 C         147.5604  142.3079  152.8850 C.2     1  UNL1       -0.0040
     13 C         146.5333  141.2479  153.1524 C.2     1  UNL1        0.0041
     14 C         145.9420  141.1056  154.5235 C.2     1  UNL1        0.0528
     15 C         144.9149  140.0455  154.7910 C.2     1  UNL1        0.1982
     16 O         144.4791  139.1279  153.6873 O.2     1  UNL1       -0.2865
     17 C         144.3235  139.9032  156.1621 C.ar    1  UNL1        0.0588
     18 C         143.2964  138.8432  156.4296 C.ar    1  UNL1        0.0345
     19 C         142.7051  138.7008  157.8007 C.ar    1  UNL1        0.1446
     20 F         141.6780  137.6408  158.0681 F       1  UNL1       -0.2040
     21 C         140.4899  139.5576  161.8572 C.3     1  UNL1        0.0775
     22 C         140.7502  141.0111  162.1204 C.3     1  UNL1        0.0243
     23 C         140.2296  138.1040  161.5940 C.3     1  UNL1        0.0243
     24 C         138.7159  139.1305  165.9706 C.ar    1  UNL1        0.1318
     25 C         138.8809  137.9232  165.0960 C.ar    1  UNL1        0.0341
     26 C         139.4722  138.0655  163.7248 C.ar    1  UNL1        0.0017
     27 C         139.8986  139.4152  163.2283 C.ar    1  UNL1        0.0130
     28 C         139.7335  140.6226  164.1030 C.ar    1  UNL1        0.0975
     29 N         139.1422  140.4802  165.4741 N.ar    1  UNL1       -0.2294
     30 N         136.9418  138.7035  170.0840 N.3     1  UNL1       -0.2698
     31 C         138.0694  139.6645  169.8496 C.3     1  UNL1        0.0939
     32 C         138.6608  139.8068  168.4785 C.3     1  UNL1        0.1095
     33 N         138.1245  138.9882  167.3418 N.pl3   1  UNL1       -0.2904
     34 C         136.9969  138.0272  167.5762 C.3     1  UNL1        0.1095
     35 C         136.4055  137.8848  168.9473 C.3     1  UNL1        0.0939
     36 C         136.7585  137.4151  172.3327 C.3     1  UNL1        0.0188
     37 C         136.3504  138.5612  171.4552 C.3     1  UNL1        0.0722
@<TRIPOS>BOND
     1    36    37    1
     2    37    30    1
     3    30    31    1
     4    31    32    1
     5    32    33    1
     6    33    24    1
     7    24    25   ar
     8    25    26   ar
     9    26    27   ar
    10    27    21    1
    11    21    22    1
    12    21    23    1
    13    21     1    1
    14     1     2   am
    15     2     3    2
    16     2     5    1
    17     5     6   ar
    18     6     7   ar
    19     7     8    1
    20     8     9    2
    21     9    10    1
    22    10    11    1
    23    11    12    2
    24    12    13    1
    25    13    14    2
    26    14    15    1
    27    15    16    2
    28    15    17    1
    29    17    18   ar
    30    18    19   ar
    31    19    20    1
    32    27    28   ar
    33    28    29   ar
    34    33    34    1
    35    34    35    1
    36    35    30    1
    37    29    24   ar
    38    19     5   ar
    39    17     7   ar
    40    14     9    1
    41     1     4    1
@<TRIPOS>MOLECULE
*****
 37 41 0 0 0
SMALL
GASTEIGER

@<TRIPOS>ATOM
      1 N         141.9677  138.9004  154.9144 N.am    1  UNL1       -0.3004
      2 C         140.9181  137.8516  154.6944 C.2     1  UNL1        0.2482
      3 O         139.4859  138.2529  154.5005 O.2     1  UNL1       -0.2701
      4 H         142.9078  138.6371  155.0416 H       1  UNL1        0.1499
      5 C         141.3008  136.4015  154.6682 C.ar    1  UNL1        0.0823
      6 C         142.1443  135.8285  155.7683 C.ar    1  UNL1        0.0260
      7 C         142.5270  134.3784  155.7423 C.ar    1  UNL1        0.0843
      8 N         143.3705  133.8054  156.8423 N.2     1  UNL1       -0.2491
      9 C         143.7532  132.3552  156.8163 C.2     1  UNL1        0.0664
     10 C         144.5967  131.7823  157.9163 C.3     1  UNL1        0.0718
     11 C         144.9793  130.3322  157.8902 C.2     1  UNL1       -0.0198
     12 C         144.5186  129.4550  156.7640 C.2     1  UNL1       -0.0040
     13 C         143.6751  130.0280  155.6640 C.2     1  UNL1        0.0041
     14 C         143.2924  131.4781  155.6901 C.2     1  UNL1        0.0528
     15 C         142.4489  132.0511  154.5899 C.2     1  UNL1        0.1982
     16 O         141.9881  131.1740  153.4638 O.2     1  UNL1       -0.2865
     17 C         142.0662  133.5012  154.6161 C.ar    1  UNL1        0.0588
     18 C         141.2227  134.0743  153.5159 C.ar    1  UNL1        0.0345
     19 C         140.8400  135.5244  153.5421 C.ar    1  UNL1        0.1446
     20 F         139.9966  136.0973  152.4420 F       1  UNL1       -0.2040
     21 C         141.5851  140.3505  154.9405 C.3     1  UNL1        0.0775
     22 C         141.9242  140.4663  153.4840 C.3     1  UNL1        0.0243
     23 C         141.2459  140.2348  156.3970 C.3     1  UNL1        0.0243
     24 C         140.4370  144.7009  155.0188 C.ar    1  UNL1        0.1318
     25 C         141.8300  144.2997  154.6336 C.ar    1  UNL1        0.0341
     26 C         142.2128  142.8496  154.6075 C.ar    1  UNL1        0.0017
     27 C         141.2024  141.8006  154.9666 C.ar    1  UNL1        0.0130
     28 C         139.8093  142.2019  155.3518 C.ar    1  UNL1        0.0975
     29 N         139.4266  143.6520  155.3779 N.ar    1  UNL1       -0.2294
     30 N         139.2888  149.0513  155.0971 N.3     1  UNL1       -0.2698
     31 C         138.8747  148.1460  156.2192 C.3     1  UNL1        0.0939
     32 C         139.2574  146.6959  156.1931 C.3     1  UNL1        0.1095
     33 N         140.0542  146.1511  155.0450 N.pl3   1  UNL1       -0.2904
     34 C         140.4684  147.0564  153.9229 C.3     1  UNL1        0.1095
     35 C         140.0857  148.5065  153.9490 C.3     1  UNL1        0.0939
     36 C         138.9108  151.2551  156.4201 C.3     1  UNL1        0.0188
     37 C         138.9061  150.5014  155.1233 C.3     1  UNL1        0.0722
@<TRIPOS>BOND
     1    36    37    1
     2    37    30    1
     3    30    31    1
     4    31    32    1
     5    32    33    1
     6    33    24    1
     7    24    25   ar
     8    25    26   ar
     9    26    27   ar
    10    27    21    1
    11    21    22    1
    12    21    23    1
    13    21     1    1
    14     1     2   am
    15     2     3    2
    16     2     5    1
    17     5     6   ar
    18     6     7   ar
    19     7     8    1
    20     8     9    2
    21     9    10    1
    22    10    11    1
    23    11    12    2
    24    12    13    1
    25    13    14    2
    26    14    15    1
    27    15    16    2
    28    15    17    1
    29    17    18   ar
    30    18    19   ar
    31    19    20    1
    32    27    28   ar
    33    28    29   ar
    34    33    34    1
    35    34    35    1
    36    35    30    1
    37    29    24   ar
    38    19     5   ar
    39    17     7   ar
    40    14     9    1
    41     1     4    1
@<TRIPOS>MOLECULE
*****
 37 41 0 0 0
SMALL
GASTEIGER

@<TRIPOS>ATOM
      1 N         142.6445  140.8292  159.9092 N.am    1  UNL1       -0.3004
      2 C         142.8870  139.6384  159.0299 C.2     1  UNL1        0.2482
      3 O         142.4899  138.2689  159.4957 O.2     1  UNL1       -0.2701
      4 H         142.9051  141.7281  159.6036 H       1  UNL1        0.1499
      5 C         143.5265  139.8170  157.6849 C.ar    1  UNL1        0.0823
      6 C         144.7348  140.6939  157.5396 C.ar    1  UNL1        0.0260
      7 C         145.3744  140.8726  156.1945 C.ar    1  UNL1        0.0843
      8 N         146.5826  141.7494  156.0491 N.2     1  UNL1       -0.2491
      9 C         147.2222  141.9281  154.7041 C.2     1  UNL1        0.0664
     10 C         148.4304  142.8050  154.5587 C.3     1  UNL1        0.0718
     11 C         149.0700  142.9836  153.2137 C.2     1  UNL1       -0.0198
     12 C         148.5013  142.2854  152.0141 C.2     1  UNL1       -0.0040
     13 C         147.2931  141.4085  152.1595 C.2     1  UNL1        0.0041
     14 C         146.6535  141.2299  153.5045 C.2     1  UNL1        0.0528
     15 C         145.4452  140.3529  153.6499 C.2     1  UNL1        0.1982
     16 O         144.8765  139.6547  152.4503 O.2     1  UNL1       -0.2865
     17 C         144.8057  140.1743  154.9949 C.ar    1  UNL1        0.0588
     18 C         143.5974  139.2974  155.1404 C.ar    1  UNL1        0.0345
     19 C         142.9578  139.1187  156.4854 C.ar    1  UNL1        0.1446
     20 F         141.7496  138.2418  156.6308 F       1  UNL1       -0.2040
     21 C         142.0050  140.6506  161.2542 C.3     1  UNL1        0.0775
     22 C         140.6510  140.8311  160.6344 C.3     1  UNL1        0.0243
     23 C         143.3589  140.4701  161.8741 C.3     1  UNL1        0.0243
     24 C         140.0863  140.1147  165.2893 C.ar    1  UNL1        0.1318
     25 C         140.4111  141.4914  164.7902 C.ar    1  UNL1        0.0341
     26 C         141.0507  141.6700  163.4451 C.ar    1  UNL1        0.0017
     27 C         141.3654  140.4720  162.5992 C.ar    1  UNL1        0.0130
     28 C         141.0406  139.0952  163.0984 C.ar    1  UNL1        0.0975
     29 N         140.4010  138.9166  164.4433 N.ar    1  UNL1       -0.2294
     30 N         138.1677  139.5787  169.3243 N.3     1  UNL1       -0.2698
     31 C         137.6401  138.8285  168.1374 C.3     1  UNL1        0.0939
     32 C         138.2796  139.0072  166.7924 C.3     1  UNL1        0.1095
     33 N         139.4467  139.9360  166.6343 N.pl3   1  UNL1       -0.2904
     34 C         139.9744  140.6861  167.8213 C.3     1  UNL1        0.1095
     35 C         139.3349  140.5075  169.1663 C.3     1  UNL1        0.0939
     36 C         136.3522  138.4819  170.8246 C.3     1  UNL1        0.0188
     37 C         137.5281  139.4000  170.6694 C.3     1  UNL1        0.0722
@<TRIPOS>BOND
     1    36    37    1
     2    37    30    1
     3    30    31    1
     4    31    32    1
     5    32    33    1
     6    33    24    1
     7    24    25   ar
     8    25    26   ar
     9    26    27   ar
    10    27    21    1
    11    21    22    1
    12    21    23    1
    13    21     1    1
    14     1     2   am
    15     2     3    2
    16     2     5    1
    17     5     6   ar
    18     6     7   ar
    19     7     8    1
    20     8     9    2
    21     9    10    1
    22    10    11    1
    23    11    12    2
    24    12    13    1
    25    13    14    2
    26    14    15    1
    27    15    16    2
    28    15    17    1
    29    17    18   ar
    30    18    19   ar
    31    19    20    1
    32    27    28   ar
    33    28    29   ar
    34    33    34    1
    35    34    35    1
    36    35    30    1
    37    29    24   ar
    38    19     5   ar
    39    17     7   ar
    40    14     9    1
    41     1     4    1
