@<TRIPOS>MOLECULE
*****
 28 30 0 0 0
SMALL
GASTEIGER

@<TRIPOS>ATOM
      1 C         138.1240  142.3056  160.2965 C.2     1  UNL1        0.4087
      2 O         137.7155  143.2927  161.3494 O.2     1  UNL1       -0.2258
      3 N         138.5132  140.9106  160.6868 N.am    1  UNL1       -0.2239
      4 C         138.9217  139.9235  159.6339 C.3     1  UNL1        0.1020
      5 C         139.3110  138.5285  160.0242 C.3     1  UNL1        0.0283
      6 C         139.2917  138.1205  161.4675 C.3     1  UNL1        0.0489
      7 C         138.8832  139.1076  162.5204 C.ar    1  UNL1        0.0724
      8 N         138.8639  138.6997  163.9638 N.ar    1  UNL1       -0.2511
      9 C         138.4554  139.6868  165.0168 C.ar    1  UNL1        0.0764
     10 C         138.0662  141.0818  164.6264 C.ar    1  UNL1        0.0176
     11 C         138.0854  141.4898  163.1831 C.ar    1  UNL1        0.0175
     12 C         138.4940  140.5027  162.1301 C.ar    1  UNL1        0.0705
     13 C         138.4361  139.2788  166.4602 C.3     1  UNL1        0.1121
     14 C         137.6882  138.0489  166.8820 C.3     1  UNL1        0.0278
     15 N         139.1648  140.1008  167.4816 N.am    1  UNL1       -0.2973
     16 C         140.5885  140.5069  167.2407 C.2     1  UNL1        0.2461
     17 O         141.2836  140.0909  165.9782 O.2     1  UNL1       -0.2701
     18 H         138.7086  140.3738  168.3102 H       1  UNL1        0.1500
     19 C         141.3171  141.3289  168.2621 C.ar    1  UNL1        0.0535
     20 C         140.6818  142.5681  168.8194 C.ar    1  UNL1        0.0068
     21 C         141.4105  143.3901  169.8409 C.ar    1  UNL1        0.0298
     22 C         142.7744  142.9729  170.3051 C.ar    1  UNL1        0.1401
     23 F         143.5031  143.7949  171.3265 F       1  UNL1       -0.2042
     24 C         143.4097  141.7336  169.7478 C.ar    1  UNL1        0.0298
     25 C         142.6811  140.9116  168.7263 C.ar    1  UNL1        0.0068
     26 O         138.1432  142.7136  158.8532 O.3     1  UNL1       -0.4343
     27 C         140.5531  143.6432  159.1335 C.3     1  UNL1        0.0513
     28 C         139.3922  143.2875  158.2526 C.3     1  UNL1        0.2103
@<TRIPOS>BOND
     1    27    28    1
     2    28    26    1
     3    26     1    1
     4     1     2    2
     5     1     3   am
     6     3     4    1
     7     4     5    1
     8     5     6    1
     9     6     7    1
    10     7     8   ar
    11     8     9   ar
    12     9    13    1
    13    13    14    1
    14    13    15    1
    15    15    16   am
    16    16    17    2
    17    16    19    1
    18    19    20   ar
    19    20    21   ar
    20    21    22   ar
    21    22    23    1
    22    22    24   ar
    23    24    25   ar
    24     9    10   ar
    25    10    11   ar
    26    11    12   ar
    27    12     3    1
    28    12     7   ar
    29    25    19   ar
    30    15    18    1
@<TRIPOS>MOLECULE
*****
 28 30 0 0 0
SMALL
GASTEIGER

@<TRIPOS>ATOM
      1 C         141.8326  145.0125  158.7948 C.2     1  UNL1        0.4087
      2 O         143.0018  144.1571  158.4059 O.2     1  UNL1       -0.2258
      3 N         141.3331  145.0018  160.2091 N.am    1  UNL1       -0.2239
      4 C         140.1639  145.8572  160.5980 C.3     1  UNL1        0.1020
      5 C         139.6643  145.8466  162.0123 C.3     1  UNL1        0.0283
      6 C         140.3340  144.9806  163.0378 C.3     1  UNL1        0.0489
      7 C         141.5032  144.1252  162.6489 C.ar    1  UNL1        0.0724
      8 N         142.1729  143.2592  163.6744 N.ar    1  UNL1       -0.2511
      9 C         143.3421  142.4038  163.2855 C.ar    1  UNL1        0.0764
     10 C         143.8417  142.4145  161.8711 C.ar    1  UNL1        0.0176
     11 C         143.1720  143.2804  160.8457 C.ar    1  UNL1        0.0175
     12 C         142.0027  144.1359  161.2346 C.ar    1  UNL1        0.0705
     13 C         144.0119  141.5378  164.3109 C.3     1  UNL1        0.1121
     14 C         145.2952  140.8366  163.9776 C.3     1  UNL1        0.0278
     15 N         143.3981  141.3731  165.6697 N.am    1  UNL1       -0.2973
     16 C         142.3870  140.2915  165.9098 C.2     1  UNL1        0.2461
     17 O         141.9896  139.3746  164.7912 O.2     1  UNL1       -0.2701
     18 H         143.6590  141.9749  166.4039 H       1  UNL1        0.1500
     19 C         141.7733  140.1268  167.2686 C.ar    1  UNL1        0.0535
     20 C         140.3217  140.4406  167.4790 C.ar    1  UNL1        0.0068
     21 C         139.7080  140.2759  168.8377 C.ar    1  UNL1        0.0298
     22 C         140.5459  139.7973  169.9861 C.ar    1  UNL1        0.1401
     23 F         139.9322  139.6326  171.3449 F       1  UNL1       -0.2042
     24 C         141.9975  139.4835  169.7757 C.ar    1  UNL1        0.0298
     25 C         142.6112  139.6482  168.4170 C.ar    1  UNL1        0.0068
     26 O         141.1629  145.8784  157.7693 O.3     1  UNL1       -0.4343
     27 C         139.3618  146.1983  155.9244 C.3     1  UNL1        0.0513
     28 C         140.0324  145.3318  156.9489 C.3     1  UNL1        0.2103
@<TRIPOS>BOND
     1    27    28    1
     2    28    26    1
     3    26     1    1
     4     1     2    2
     5     1     3   am
     6     3     4    1
     7     4     5    1
     8     5     6    1
     9     6     7    1
    10     7     8   ar
    11     8     9   ar
    12     9    13    1
    13    13    14    1
    14    13    15    1
    15    15    16   am
    16    16    17    2
    17    16    19    1
    18    19    20   ar
    19    20    21   ar
    20    21    22   ar
    21    22    23    1
    22    22    24   ar
    23    24    25   ar
    24     9    10   ar
    25    10    11   ar
    26    11    12   ar
    27    12     3    1
    28    12     7   ar
    29    25    19   ar
    30    15    18    1
@<TRIPOS>MOLECULE
*****
 28 30 0 0 0
SMALL
GASTEIGER

@<TRIPOS>ATOM
      1 C         138.8813  139.1056  159.8285 C.2     1  UNL1        0.4087
      2 O         139.1385  137.7372  160.3863 O.2     1  UNL1       -0.2258
      3 N         138.5705  140.2459  160.7521 N.am    1  UNL1       -0.2239
      4 C         138.3133  141.6143  160.1943 C.3     1  UNL1        0.1020
      5 C         138.0025  142.7545  161.1180 C.3     1  UNL1        0.0283
      6 C         137.9489  142.5264  162.5995 C.3     1  UNL1        0.0489
      7 C         138.2061  141.1580  163.1574 C.ar    1  UNL1        0.0724
      8 N         138.1525  140.9298  164.6390 N.ar    1  UNL1       -0.2511
      9 C         138.4097  139.5614  165.1969 C.ar    1  UNL1        0.0764
     10 C         138.7205  138.4211  164.2732 C.ar    1  UNL1        0.0176
     11 C         138.7741  138.6492  162.7916 C.ar    1  UNL1        0.0175
     12 C         138.5169  140.0177  162.2337 C.ar    1  UNL1        0.0705
     13 C         138.3561  139.3332  166.6785 C.3     1  UNL1        0.1121
     14 C         137.5563  138.1919  167.2331 C.3     1  UNL1        0.0278
     15 N         139.1024  140.2464  167.6054 N.am    1  UNL1       -0.2973
     16 C         140.6010  140.2949  167.5647 C.2     1  UNL1        0.2461
     17 O         141.3534  139.4304  166.5971 O.2     1  UNL1       -0.2701
     18 H         138.6085  140.8138  168.2405 H       1  UNL1        0.1500
     19 C         141.3472  141.2081  168.4917 C.ar    1  UNL1        0.0535
     20 C         140.6701  142.4227  169.0539 C.ar    1  UNL1        0.0068
     21 C         141.4163  143.3359  169.9809 C.ar    1  UNL1        0.0298
     22 C         142.8397  143.0345  170.3456 C.ar    1  UNL1        0.1401
     23 F         143.5860  143.9477  171.2725 F       1  UNL1       -0.2042
     24 C         143.5169  141.8199  169.7833 C.ar    1  UNL1        0.0298
     25 C         142.7706  140.9067  168.8564 C.ar    1  UNL1        0.0068
     26 O         138.9349  139.3337  158.3469 O.3     1  UNL1       -0.4343
     27 C         141.4439  139.1524  157.6970 C.3     1  UNL1        0.0513
     28 C         140.0228  138.7023  157.5297 C.3     1  UNL1        0.2103
@<TRIPOS>BOND
     1    27    28    1
     2    28    26    1
     3    26     1    1
     4     1     2    2
     5     1     3   am
     6     3     4    1
     7     4     5    1
     8     5     6    1
     9     6     7    1
    10     7     8   ar
    11     8     9   ar
    12     9    13    1
    13    13    14    1
    14    13    15    1
    15    15    16   am
    16    16    17    2
    17    16    19    1
    18    19    20   ar
    19    20    21   ar
    20    21    22   ar
    21    22    23    1
    22    22    24   ar
    23    24    25   ar
    24     9    10   ar
    25    10    11   ar
    26    11    12   ar
    27    12     3    1
    28    12     7   ar
    29    25    19   ar
    30    15    18    1
@<TRIPOS>MOLECULE
*****
 28 30 0 0 0
SMALL
GASTEIGER

@<TRIPOS>ATOM
      1 C         141.6934  138.3267  160.1263 C.2     1  UNL1        0.4087
      2 O         142.6412  137.7831  161.1540 O.2     1  UNL1       -0.2258
      3 N         140.3738  138.8994  160.5515 N.am    1  UNL1       -0.2239
      4 C         139.4260  139.4430  159.5239 C.3     1  UNL1        0.1020
      5 C         138.1064  140.0157  159.9491 C.3     1  UNL1        0.0283
      6 C         137.7347  140.0448  161.4020 C.3     1  UNL1        0.0489
      7 C         138.6825  139.5012  162.4297 C.ar    1  UNL1        0.0724
      8 N         138.3108  139.5303  163.8826 N.ar    1  UNL1       -0.2511
      9 C         139.2586  138.9867  164.9103 C.ar    1  UNL1        0.0764
     10 C         140.5782  138.4140  164.4851 C.ar    1  UNL1        0.0176
     11 C         140.9499  138.3849  163.0322 C.ar    1  UNL1        0.0175
     12 C         140.0021  138.9285  162.0044 C.ar    1  UNL1        0.0705
     13 C         138.8869  139.0158  166.3633 C.3     1  UNL1        0.1121
     14 C         137.6178  138.3638  166.8259 C.3     1  UNL1        0.0278
     15 N         139.7845  139.6969  167.3535 N.am    1  UNL1       -0.2973
     16 C         140.0431  141.1701  167.2419 C.2     1  UNL1        0.2461
     17 O         139.4041  141.9624  166.1401 O.2     1  UNL1       -0.2701
     18 H         140.2038  139.1769  168.0767 H       1  UNL1        0.1500
     19 C         140.9406  141.8512  168.2322 C.ar    1  UNL1        0.0535
     20 C         142.3808  141.4466  168.3412 C.ar    1  UNL1        0.0068
     21 C         143.2784  142.1277  169.3314 C.ar    1  UNL1        0.0298
     22 C         142.7356  143.2134  170.2127 C.ar    1  UNL1        0.1401
     23 F         143.6332  143.8944  171.2029 F       1  UNL1       -0.2042
     24 C         141.2954  143.6180  170.1037 C.ar    1  UNL1        0.0298
     25 C         140.3979  142.9369  169.1134 C.ar    1  UNL1        0.0068
     26 O         142.0651  138.2976  158.6734 O.3     1  UNL1       -0.4343
     27 C         143.7960  140.2235  158.8854 C.3     1  UNL1        0.0513
     28 C         142.8048  139.4521  158.0652 C.3     1  UNL1        0.2103
@<TRIPOS>BOND
     1    27    28    1
     2    28    26    1
     3    26     1    1
     4     1     2    2
     5     1     3   am
     6     3     4    1
     7     4     5    1
     8     5     6    1
     9     6     7    1
    10     7     8   ar
    11     8     9   ar
    12     9    13    1
    13    13    14    1
    14    13    15    1
    15    15    16   am
    16    16    17    2
    17    16    19    1
    18    19    20   ar
    19    20    21   ar
    20    21    22   ar
    21    22    23    1
    22    22    24   ar
    23    24    25   ar
    24     9    10   ar
    25    10    11   ar
    26    11    12   ar
    27    12     3    1
    28    12     7   ar
    29    25    19   ar
    30    15    18    1
@<TRIPOS>MOLECULE
*****
 28 30 0 0 0
SMALL
GASTEIGER

@<TRIPOS>ATOM
      1 C         138.4771  139.5978  169.6525 C.2     1  UNL1        0.4087
      2 O         137.8969  139.1262  168.3522 O.2     1  UNL1       -0.2258
      3 N         139.8348  140.2348  169.6808 N.am    1  UNL1       -0.2239
      4 C         140.4151  140.7064  170.9812 C.3     1  UNL1        0.1020
      5 C         141.7728  141.3433  171.0095 C.3     1  UNL1        0.0283
      6 C         142.5503  141.5087  169.7375 C.3     1  UNL1        0.0489
      7 C         141.9701  141.0372  168.4372 C.ar    1  UNL1        0.0724
      8 N         142.7476  141.2025  167.1650 N.ar    1  UNL1       -0.2511
      9 C         142.1674  140.7309  165.8647 C.ar    1  UNL1        0.0764
     10 C         140.8097  140.0940  165.8364 C.ar    1  UNL1        0.0176
     11 C         140.0322  139.9286  167.1084 C.ar    1  UNL1        0.0175
     12 C         140.6124  140.4002  168.4088 C.ar    1  UNL1        0.0705
     13 C         142.9449  140.8963  164.5926 C.3     1  UNL1        0.1121
     14 C         144.3226  140.3148  164.4746 C.3     1  UNL1        0.0278
     15 N         142.3448  141.6433  163.4385 N.am    1  UNL1       -0.2973
     16 C         142.3559  143.1432  163.4287 C.2     1  UNL1        0.2461
     17 O         142.9672  143.8961  164.5729 O.2     1  UNL1       -0.2701
     18 H         141.9436  141.1490  162.6875 H       1  UNL1        0.1500
     19 C         141.7558  143.8901  162.2746 C.ar    1  UNL1        0.0535
     20 C         140.7933  145.0126  162.5268 C.ar    1  UNL1        0.0068
     21 C         140.1932  145.7595  161.3727 C.ar    1  UNL1        0.0298
     22 C         140.5555  145.3840  159.9664 C.ar    1  UNL1        0.1401
     23 F         139.9553  146.1309  158.8124 F       1  UNL1       -0.2042
     24 C         141.5179  144.2615  159.7143 C.ar    1  UNL1        0.0298
     25 C         142.1181  143.5145  160.8683 C.ar    1  UNL1        0.0068
     26 O         137.6996  139.4324  170.9245 O.3     1  UNL1       -0.4343
     27 C         135.9204  137.9421  172.0922 C.3     1  UNL1        0.0513
     28 C         136.3677  138.7426  170.9052 C.3     1  UNL1        0.2103
@<TRIPOS>BOND
     1    27    28    1
     2    28    26    1
     3    26     1    1
     4     1     2    2
     5     1     3   am
     6     3     4    1
     7     4     5    1
     8     5     6    1
     9     6     7    1
    10     7     8   ar
    11     8     9   ar
    12     9    13    1
    13    13    14    1
    14    13    15    1
    15    15    16   am
    16    16    17    2
    17    16    19    1
    18    19    20   ar
    19    20    21   ar
    20    21    22   ar
    21    22    23    1
    22    22    24   ar
    23    24    25   ar
    24     9    10   ar
    25    10    11   ar
    26    11    12   ar
    27    12     3    1
    28    12     7   ar
    29    25    19   ar
    30    15    18    1
@<TRIPOS>MOLECULE
*****
 28 30 0 0 0
SMALL
GASTEIGER

@<TRIPOS>ATOM
      1 C         140.5463  138.4212  159.1666 C.2     1  UNL1        0.4087
      2 O         139.0700  138.5699  159.3862 O.2     1  UNL1       -0.2258
      3 N         141.4834  138.4296  160.3379 N.am    1  UNL1       -0.2239
      4 C         142.9597  138.2808  160.1184 C.3     1  UNL1        0.1020
      5 C         143.8967  138.2893  161.2897 C.3     1  UNL1        0.0283
      6 C         143.3574  138.4465  162.6805 C.3     1  UNL1        0.0489
      7 C         141.8811  138.5953  162.9000 C.ar    1  UNL1        0.0724
      8 N         141.3417  138.7526  164.2909 N.ar    1  UNL1       -0.2511
      9 C         139.8654  138.9013  164.5104 C.ar    1  UNL1        0.0764
     10 C         138.9284  138.8929  163.3391 C.ar    1  UNL1        0.0176
     11 C         139.4676  138.7356  161.9483 C.ar    1  UNL1        0.0175
     12 C         140.9441  138.5869  161.7287 C.ar    1  UNL1        0.0705
     13 C         139.3260  139.0586  165.9013 C.3     1  UNL1        0.1121
     14 C         137.9550  138.5505  166.2359 C.3     1  UNL1        0.0278
     15 N         140.1578  139.7239  166.9574 N.am    1  UNL1       -0.2973
     16 C         140.2581  141.2199  167.0012 C.2     1  UNL1        0.2461
     17 O         139.5268  142.0505  165.9887 O.2     1  UNL1       -0.2701
     18 H         140.6378  139.1787  167.6219 H       1  UNL1        0.1500
     19 C         141.0899  141.8852  168.0573 C.ar    1  UNL1        0.0535
     20 C         140.4401  142.7811  169.0698 C.ar    1  UNL1        0.0068
     21 C         141.2719  143.4464  170.1260 C.ar    1  UNL1        0.0298
     22 C         142.7534  143.2159  170.1697 C.ar    1  UNL1        0.1401
     23 F         143.5852  143.8813  171.2259 F       1  UNL1       -0.2042
     24 C         143.4032  142.3201  169.1572 C.ar    1  UNL1        0.0298
     25 C         142.5714  141.6547  168.1010 C.ar    1  UNL1        0.0068
     26 O         141.0856  138.2639  157.7758 O.3     1  UNL1       -0.4343
     27 C         140.5323  138.3217  155.2380 C.3     1  UNL1        0.0513
     28 C         140.1553  137.9505  156.6417 C.3     1  UNL1        0.2103
@<TRIPOS>BOND
     1    27    28    1
     2    28    26    1
     3    26     1    1
     4     1     2    2
     5     1     3   am
     6     3     4    1
     7     4     5    1
     8     5     6    1
     9     6     7    1
    10     7     8   ar
    11     8     9   ar
    12     9    13    1
    13    13    14    1
    14    13    15    1
    15    15    16   am
    16    16    17    2
    17    16    19    1
    18    19    20   ar
    19    20    21   ar
    20    21    22   ar
    21    22    23    1
    22    22    24   ar
    23    24    25   ar
    24     9    10   ar
    25    10    11   ar
    26    11    12   ar
    27    12     3    1
    28    12     7   ar
    29    25    19   ar
    30    15    18    1
@<TRIPOS>MOLECULE
*****
 28 30 0 0 0
SMALL
GASTEIGER

@<TRIPOS>ATOM
      1 C         140.3674  140.3472  168.9117 C.2     1  UNL1        0.4087
      2 O         139.0625  139.6418  168.6895 O.2     1  UNL1       -0.2258
      3 N         141.1211  140.9150  167.7458 N.am    1  UNL1       -0.2239
      4 C         142.4261  141.6204  167.9681 C.3     1  UNL1        0.1020
      5 C         143.1798  142.1883  166.8021 C.3     1  UNL1        0.0283
      6 C         142.6286  142.0507  165.4139 C.3     1  UNL1        0.0489
      7 C         141.3237  141.3453  165.1916 C.ar    1  UNL1        0.0724
      8 N         140.7724  141.2077  163.8033 N.ar    1  UNL1       -0.2511
      9 C         139.4674  140.5023  163.5811 C.ar    1  UNL1        0.0764
     10 C         138.7137  139.9345  164.7470 C.ar    1  UNL1        0.0176
     11 C         139.2649  140.0720  166.1352 C.ar    1  UNL1        0.0175
     12 C         140.5699  140.7775  166.3576 C.ar    1  UNL1        0.0705
     13 C         138.9161  140.3647  162.1928 C.3     1  UNL1        0.1121
     14 C         137.8188  139.3803  161.9157 C.3     1  UNL1        0.0278
     15 N         139.4622  141.2116  161.0817 N.am    1  UNL1       -0.2973
     16 C         138.8382  142.5408  160.7756 C.2     1  UNL1        0.2461
     17 O         137.6681  143.0232  161.5806 O.2     1  UNL1       -0.2701
     18 H         140.2302  140.8950  160.5533 H       1  UNL1        0.1500
     19 C         139.3843  143.3876  159.6644 C.ar    1  UNL1        0.0535
     20 C         139.1240  143.0101  158.2363 C.ar    1  UNL1        0.0068
     21 C         139.6701  143.8569  157.1251 C.ar    1  UNL1        0.0298
     22 C         140.4764  145.0814  157.4422 C.ar    1  UNL1        0.1401
     23 F         141.0225  145.9282  156.3310 F       1  UNL1       -0.2042
     24 C         140.7367  145.4589  158.8703 C.ar    1  UNL1        0.0298
     25 C         140.1906  144.6121  159.9814 C.ar    1  UNL1        0.0068
     26 O         140.9186  140.4847  170.2999 O.3     1  UNL1       -0.4343
     27 C         139.8188  142.8297  170.5046 C.3     1  UNL1        0.0513
     28 C         140.6581  141.7329  171.0901 C.3     1  UNL1        0.2103
@<TRIPOS>BOND
     1    27    28    1
     2    28    26    1
     3    26     1    1
     4     1     2    2
     5     1     3   am
     6     3     4    1
     7     4     5    1
     8     5     6    1
     9     6     7    1
    10     7     8   ar
    11     8     9   ar
    12     9    13    1
    13    13    14    1
    14    13    15    1
    15    15    16   am
    16    16    17    2
    17    16    19    1
    18    19    20   ar
    19    20    21   ar
    20    21    22   ar
    21    22    23    1
    22    22    24   ar
    23    24    25   ar
    24     9    10   ar
    25    10    11   ar
    26    11    12   ar
    27    12     3    1
    28    12     7   ar
    29    25    19   ar
    30    15    18    1
@<TRIPOS>MOLECULE
*****
 28 30 0 0 0
SMALL
GASTEIGER

@<TRIPOS>ATOM
      1 C         144.0735  142.8939  161.6697 C.2     1  UNL1        0.4087
      2 O         143.7195  143.6505  160.4239 O.2     1  UNL1       -0.2258
      3 N         144.0369  141.3943  161.6725 N.am    1  UNL1       -0.2239
      4 C         144.3909  140.6377  162.9183 C.3     1  UNL1        0.1020
      5 C         144.3543  139.1382  162.9211 C.3     1  UNL1        0.0283
      6 C         143.9637  138.3952  161.6780 C.3     1  UNL1        0.0489
      7 C         143.6097  139.1518  160.4321 C.ar    1  UNL1        0.0724
      8 N         143.2190  138.4088  159.1889 N.ar    1  UNL1       -0.2511
      9 C         142.8650  139.1654  157.9431 C.ar    1  UNL1        0.0764
     10 C         142.9016  140.6650  157.9403 C.ar    1  UNL1        0.0176
     11 C         143.2922  141.4079  159.1834 C.ar    1  UNL1        0.0175
     12 C         143.6463  140.6513  160.4294 C.ar    1  UNL1        0.0705
     13 C         142.4743  138.4224  156.6999 C.3     1  UNL1        0.1121
     14 C         142.2916  139.1642  155.4090 C.3     1  UNL1        0.0278
     15 N         142.2664  136.9377  156.7476 N.am    1  UNL1       -0.2973
     16 C         143.3439  136.0135  156.2630 C.2     1  UNL1        0.2461
     17 O         144.6294  136.5741  155.7308 O.2     1  UNL1       -0.2701
     18 H         141.4227  136.5698  157.0970 H       1  UNL1        0.1500
     19 C         143.1360  134.5288  156.3108 C.ar    1  UNL1        0.0535
     20 C         144.0339  133.6724  157.1537 C.ar    1  UNL1        0.0068
     21 C         143.8260  132.1877  157.2014 C.ar    1  UNL1        0.0298
     22 C         142.7202  131.5593  156.4063 C.ar    1  UNL1        0.1401
     23 F         142.5123  130.0745  156.4540 F       1  UNL1       -0.2042
     24 C         141.8223  132.4156  155.5634 C.ar    1  UNL1        0.0298
     25 C         142.0303  133.9004  155.5156 C.ar    1  UNL1        0.0068
     26 O         144.4641  143.6368  162.9128 O.3     1  UNL1       -0.4343
     27 C         142.4976  145.1793  163.6227 C.3     1  UNL1        0.0513
     28 C         143.4167  144.0297  163.9122 C.3     1  UNL1        0.2103
@<TRIPOS>BOND
     1    27    28    1
     2    28    26    1
     3    26     1    1
     4     1     2    2
     5     1     3   am
     6     3     4    1
     7     4     5    1
     8     5     6    1
     9     6     7    1
    10     7     8   ar
    11     8     9   ar
    12     9    13    1
    13    13    14    1
    14    13    15    1
    15    15    16   am
    16    16    17    2
    17    16    19    1
    18    19    20   ar
    19    20    21   ar
    20    21    22   ar
    21    22    23    1
    22    22    24   ar
    23    24    25   ar
    24     9    10   ar
    25    10    11   ar
    26    11    12   ar
    27    12     3    1
    28    12     7   ar
    29    25    19   ar
    30    15    18    1
@<TRIPOS>MOLECULE
*****
 28 30 0 0 0
SMALL
GASTEIGER

@<TRIPOS>ATOM
      1 C         142.2622  138.7606  159.1377 C.2     1  UNL1        0.4087
      2 O         143.7186  138.9368  159.4505 O.2     1  UNL1       -0.2258
      3 N         141.2722  138.5834  160.2506 N.am    1  UNL1       -0.2239
      4 C         139.8158  138.4072  159.9378 C.3     1  UNL1        0.1020
      5 C         138.8258  138.2300  161.0507 C.3     1  UNL1        0.0283
      6 C         139.2921  138.2291  162.4763 C.3     1  UNL1        0.0489
      7 C         140.7485  138.4053  162.7891 C.ar    1  UNL1        0.0724
      8 N         141.2150  138.4044  164.2148 N.ar    1  UNL1       -0.2511
      9 C         142.6713  138.5806  164.5275 C.ar    1  UNL1        0.0764
     10 C         143.6614  138.7577  163.4146 C.ar    1  UNL1        0.0176
     11 C         143.1950  138.7587  161.9890 C.ar    1  UNL1        0.0175
     12 C         141.7385  138.5825  161.6762 C.ar    1  UNL1        0.0705
     13 C         143.1378  138.5796  165.9532 C.3     1  UNL1        0.1121
     14 C         144.4294  137.9106  166.3193 C.3     1  UNL1        0.0278
     15 N         142.3125  139.2477  167.0127 N.am    1  UNL1       -0.2973
     16 C         142.3355  140.7412  167.1507 C.2     1  UNL1        0.2461
     17 O         143.1837  141.5665  166.2291 O.2     1  UNL1       -0.2701
     18 H         141.7558  138.7060  167.6176 H       1  UNL1        0.1500
     19 C         141.5103  141.4093  168.2102 C.ar    1  UNL1        0.0535
     20 C         141.9662  142.7068  168.8089 C.ar    1  UNL1        0.0068
     21 C         141.1409  143.3749  169.8684 C.ar    1  UNL1        0.0298
     22 C         139.8598  142.7455  170.3293 C.ar    1  UNL1        0.1401
     23 F         139.0345  143.4136  171.3888 F       1  UNL1       -0.2042
     24 C         139.4039  141.4480  169.7306 C.ar    1  UNL1        0.0298
     25 C         140.2291  140.7799  168.6711 C.ar    1  UNL1        0.0068
     26 O         141.7958  138.7615  157.7121 O.3     1  UNL1       -0.4343
     27 C         142.6188  138.6299  155.2513 C.3     1  UNL1        0.0513
     28 C         142.6215  138.0942  156.6524 C.3     1  UNL1        0.2103
@<TRIPOS>BOND
     1    27    28    1
     2    28    26    1
     3    26     1    1
     4     1     2    2
     5     1     3   am
     6     3     4    1
     7     4     5    1
     8     5     6    1
     9     6     7    1
    10     7     8   ar
    11     8     9   ar
    12     9    13    1
    13    13    14    1
    14    13    15    1
    15    15    16   am
    16    16    17    2
    17    16    19    1
    18    19    20   ar
    19    20    21   ar
    20    21    22   ar
    21    22    23    1
    22    22    24   ar
    23    24    25   ar
    24     9    10   ar
    25    10    11   ar
    26    11    12   ar
    27    12     3    1
    28    12     7   ar
    29    25    19   ar
    30    15    18    1
