@<TRIPOS>MOLECULE
*****
 24 26 0 0 0
SMALL
GASTEIGER

@<TRIPOS>ATOM
      1 C         140.1467  141.2554  166.6126 C.3     1  UNL1        0.0868
      2 C         140.3538  139.9247  165.9521 C.ar    1  UNL1        0.0200
      3 C         141.7425  139.3933  165.7549 C.ar    1  UNL1       -0.0007
      4 C         141.9496  138.0625  165.0943 C.ar    1  UNL1       -0.0001
      5 C         140.7678  137.2632  164.6310 C.ar    1  UNL1        0.0023
      6 C         139.3791  137.7947  164.8283 C.ar    1  UNL1        0.0294
      7 C         139.1720  139.1254  165.4887 C.ar    1  UNL1        0.1374
      8 F         137.7833  139.6568  165.6859 F       1  UNL1       -0.2045
      9 N         140.2142  141.3697  168.1067 N.3     1  UNL1       -0.2676
     10 C         139.9945  140.1574  168.9623 C.3     1  UNL1        0.0896
     11 C         140.0620  140.2717  170.4564 C.3     1  UNL1        0.0862
     12 N         140.3492  141.5983  171.0949 N.3     1  UNL1       -0.2951
     13 C         140.5689  142.8106  170.2393 C.3     1  UNL1        0.0862
     14 C         140.5014  142.6963  168.7452 C.3     1  UNL1        0.0896
     15 H         141.1916  141.4781  171.6572 H       1  UNL1        0.1233
     16 C         139.8722  142.4719  165.7790 C.3     1  UNL1        0.0500
     17 C         140.7377  144.4754  164.3695 C.ar    1  UNL1        0.1347
     18 C         141.8762  145.2459  163.7693 C.ar    1  UNL1        0.0366
     19 C         143.2876  144.7833  163.9784 C.ar    1  UNL1        0.0031
     20 C         143.5606  143.5502  164.7877 C.ar    1  UNL1       -0.0001
     21 C         142.4222  142.7798  165.3879 C.ar    1  UNL1       -0.0012
     22 C         141.0107  143.2424  165.1788 C.ar    1  UNL1        0.0135
     23 C         138.6108  144.6099  162.8834 C.3     1  UNL1        0.2525
     24 O         139.3262  144.9380  164.1603 O.3     1  UNL1       -0.4717
@<TRIPOS>BOND
     1    23    24    1
     2    24    17    1
     3    17    18   ar
     4    18    19   ar
     5    19    20   ar
     6    20    21   ar
     7    21    22   ar
     8    22    16    1
     9    16     1    1
    10     1     2    1
    11     2     3   ar
    12     3     4   ar
    13     4     5   ar
    14     5     6   ar
    15     6     7   ar
    16     7     8    1
    17     1     9    1
    18     9    10    1
    19    10    11    1
    20    11    12    1
    21    12    13    1
    22    13    14    1
    23    22    17   ar
    24     7     2   ar
    25    14     9    1
    26    12    15    1
@<TRIPOS>MOLECULE
*****
 24 26 0 0 0
SMALL
GASTEIGER

@<TRIPOS>ATOM
      1 C         141.4501  140.8879  167.1423 C.3     1  UNL1        0.0868
      2 C         140.5917  139.8399  166.4982 C.ar    1  UNL1        0.0200
      3 C         139.1325  139.7547  166.8349 C.ar    1  UNL1       -0.0007
      4 C         138.2740  138.7067  166.1907 C.ar    1  UNL1       -0.0001
      5 C         138.8749  137.7440  165.2098 C.ar    1  UNL1        0.0023
      6 C         140.3341  137.8292  164.8731 C.ar    1  UNL1        0.0294
      7 C         141.1925  138.8772  165.5173 C.ar    1  UNL1        0.1374
      8 F         142.6517  138.9624  165.1805 F       1  UNL1       -0.2045
      9 N         141.6685  140.8703  168.6263 N.3     1  UNL1       -0.2676
     10 C         140.9445  141.8491  169.5025 C.3     1  UNL1        0.0896
     11 C         141.1629  141.8316  170.9864 C.3     1  UNL1        0.0862
     12 N         142.1054  140.8354  171.5940 N.3     1  UNL1       -0.2951
     13 C         142.8294  139.8567  170.7178 C.3     1  UNL1        0.0862
     14 C         142.6110  139.8741  169.2339 C.3     1  UNL1        0.0896
     15 H         141.5638  140.2875  172.2626 H       1  UNL1        0.1233
     16 C         142.0901  141.9533  166.3026 C.3     1  UNL1        0.0500
     17 C         141.7505  143.6310  164.3480 C.ar    1  UNL1        0.1347
     18 C         140.8969  144.6344  163.6308 C.ar    1  UNL1        0.0366
     19 C         139.5290  144.9634  164.1508 C.ar    1  UNL1        0.0031
     20 C         139.0148  144.2892  165.3882 C.ar    1  UNL1       -0.0001
     21 C         139.8684  143.2858  166.1054 C.ar    1  UNL1       -0.0012
     22 C         141.2363  142.9567  165.5853 C.ar    1  UNL1        0.0135
     23 C         143.8979  144.3307  163.0637 C.3     1  UNL1        0.2525
     24 O         143.1185  143.3019  163.8280 O.3     1  UNL1       -0.4717
@<TRIPOS>BOND
     1    23    24    1
     2    24    17    1
     3    17    18   ar
     4    18    19   ar
     5    19    20   ar
     6    20    21   ar
     7    21    22   ar
     8    22    16    1
     9    16     1    1
    10     1     2    1
    11     2     3   ar
    12     3     4   ar
    13     4     5   ar
    14     5     6   ar
    15     6     7   ar
    16     7     8    1
    17     1     9    1
    18     9    10    1
    19    10    11    1
    20    11    12    1
    21    12    13    1
    22    13    14    1
    23    22    17   ar
    24     7     2   ar
    25    14     9    1
    26    12    15    1
@<TRIPOS>MOLECULE
*****
 24 26 0 0 0
SMALL
GASTEIGER

@<TRIPOS>ATOM
      1 C         142.0037  140.9539  166.6770 C.3     1  UNL1        0.0868
      2 C         143.1611  141.1021  165.7345 C.ar    1  UNL1        0.0200
      3 C         143.6957  142.4660  165.4119 C.ar    1  UNL1       -0.0007
      4 C         144.8532  142.6141  164.4694 C.ar    1  UNL1       -0.0001
      5 C         145.4760  141.3985  163.8495 C.ar    1  UNL1        0.0023
      6 C         144.9414  140.0347  164.1721 C.ar    1  UNL1        0.0294
      7 C         143.7840  139.8864  165.1146 C.ar    1  UNL1        0.1374
      8 F         143.2493  138.5226  165.4371 F       1  UNL1       -0.2045
      9 N         142.2152  141.1055  168.1543 N.3     1  UNL1       -0.2676
     10 C         142.1229  142.4610  168.7899 C.3     1  UNL1        0.0896
     11 C         142.3344  142.6126  170.2672 C.3     1  UNL1        0.0862
     12 N         142.6382  141.4087  171.1087 N.3     1  UNL1       -0.2951
     13 C         142.7305  140.0532  170.4731 C.3     1  UNL1        0.0862
     14 C         142.5190  139.9016  168.9959 C.3     1  UNL1        0.0896
     15 H         141.9066  141.3525  171.8172 H       1  UNL1        0.1233
     16 C         140.6347  140.6541  166.1422 C.3     1  UNL1        0.0500
     17 C         138.5776  141.4561  164.7728 C.ar    1  UNL1        0.1347
     18 C         137.7130  142.5687  164.2587 C.ar    1  UNL1        0.0366
     19 C         138.0408  143.9921  164.5998 C.ar    1  UNL1        0.0031
     20 C         139.2333  144.3029  165.4550 C.ar    1  UNL1       -0.0001
     21 C         140.0979  143.1902  165.9692 C.ar    1  UNL1       -0.0012
     22 C         139.7700  141.7668  165.6281 C.ar    1  UNL1        0.0135
     23 C         138.1861  139.6008  162.9967 C.3     1  UNL1        0.2525
     24 O         138.2497  140.0326  164.4318 O.3     1  UNL1       -0.4717
@<TRIPOS>BOND
     1    23    24    1
     2    24    17    1
     3    17    18   ar
     4    18    19   ar
     5    19    20   ar
     6    20    21   ar
     7    21    22   ar
     8    22    16    1
     9    16     1    1
    10     1     2    1
    11     2     3   ar
    12     3     4   ar
    13     4     5   ar
    14     5     6   ar
    15     6     7   ar
    16     7     8    1
    17     1     9    1
    18     9    10    1
    19    10    11    1
    20    11    12    1
    21    12    13    1
    22    13    14    1
    23    22    17   ar
    24     7     2   ar
    25    14     9    1
    26    12    15    1
@<TRIPOS>MOLECULE
*****
 24 26 0 0 0
SMALL
GASTEIGER

@<TRIPOS>ATOM
      1 C         140.7094  142.2628  166.4265 C.3     1  UNL1        0.0868
      2 C         139.6228  142.1747  165.3962 C.ar    1  UNL1        0.0200
      3 C         139.2776  140.8507  164.7815 C.ar    1  UNL1       -0.0007
      4 C         138.1909  140.7627  163.7512 C.ar    1  UNL1       -0.0001
      5 C         137.4495  141.9986  163.3356 C.ar    1  UNL1        0.0023
      6 C         137.7947  143.3226  163.9503 C.ar    1  UNL1        0.0294
      7 C         138.8813  143.4107  164.9806 C.ar    1  UNL1        0.1374
      8 F         139.2265  144.7347  165.5953 F       1  UNL1       -0.2045
      9 N         140.3940  142.0163  167.8722 N.3     1  UNL1       -0.2676
     10 C         140.4725  143.1428  168.8595 C.3     1  UNL1        0.0896
     11 C         140.1571  142.8964  170.3051 C.3     1  UNL1        0.0862
     12 N         139.7633  141.5235  170.7633 N.3     1  UNL1       -0.2951
     13 C         139.6849  140.3970  169.7760 C.3     1  UNL1        0.0862
     14 C         140.0002  140.6434  168.3304 C.3     1  UNL1        0.0896
     15 H         138.8395  141.6083  171.1873 H       1  UNL1        0.1233
     16 C         142.1114  142.5973  166.0112 C.3     1  UNL1        0.0500
     17 C         144.1989  141.8721  164.6450 C.ar    1  UNL1        0.1347
     18 C         145.1085  140.7928  164.1373 C.ar    1  UNL1        0.0366
     19 C         144.8401  139.3594  164.4881 C.ar    1  UNL1        0.0031
     20 C         143.6622  139.0052  165.3466 C.ar    1  UNL1       -0.0001
     21 C         142.7526  140.0845  165.8543 C.ar    1  UNL1       -0.0012
     22 C         143.0210  141.5179  165.5035 C.ar    1  UNL1        0.0135
     23 C         144.2004  143.8000  162.9034 C.3     1  UNL1        0.2525
     24 O         144.4673  143.3057  164.2942 O.3     1  UNL1       -0.4717
@<TRIPOS>BOND
     1    23    24    1
     2    24    17    1
     3    17    18   ar
     4    18    19   ar
     5    19    20   ar
     6    20    21   ar
     7    21    22   ar
     8    22    16    1
     9    16     1    1
    10     1     2    1
    11     2     3   ar
    12     3     4   ar
    13     4     5   ar
    14     5     6   ar
    15     6     7   ar
    16     7     8    1
    17     1     9    1
    18     9    10    1
    19    10    11    1
    20    11    12    1
    21    12    13    1
    22    13    14    1
    23    22    17   ar
    24     7     2   ar
    25    14     9    1
    26    12    15    1
@<TRIPOS>MOLECULE
*****
 24 26 0 0 0
SMALL
GASTEIGER

@<TRIPOS>ATOM
      1 C         141.4440  140.8557  167.1632 C.3     1  UNL1        0.0868
      2 C         140.5164  139.8397  166.5654 C.ar    1  UNL1        0.0200
      3 C         140.9192  139.0922  165.3289 C.ar    1  UNL1       -0.0007
      4 C         139.9916  138.0762  164.7311 C.ar    1  UNL1       -0.0001
      5 C         138.6612  137.8077  165.3698 C.ar    1  UNL1        0.0023
      6 C         138.2584  138.5553  166.6063 C.ar    1  UNL1        0.0294
      7 C         139.1860  139.5712  167.2041 C.ar    1  UNL1        0.1374
      8 F         138.7831  140.3188  168.4406 F       1  UNL1       -0.2045
      9 N         141.7589  140.8129  168.6292 N.3     1  UNL1       -0.2676
     10 C         142.4518  139.6174  169.2129 C.3     1  UNL1        0.0896
     11 C         142.7667  139.5746  170.6788 C.3     1  UNL1        0.0862
     12 N         142.3888  140.7273  171.5610 N.3     1  UNL1       -0.2951
     13 C         141.6960  141.9228  170.9773 C.3     1  UNL1        0.0862
     14 C         141.3810  141.9656  169.5114 C.3     1  UNL1        0.0896
     15 H         143.2509  141.0660  171.9883 H       1  UNL1        0.1233
     16 C         142.0566  141.9145  166.2951 C.3     1  UNL1        0.0500
     17 C         141.5922  143.4470  164.2492 C.ar    1  UNL1        0.1347
     18 C         140.7148  144.4343  163.5383 C.ar    1  UNL1        0.0366
     19 C         139.4245  144.8765  164.1624 C.ar    1  UNL1        0.0031
     20 C         139.0115  144.3313  165.4974 C.ar    1  UNL1       -0.0001
     21 C         139.8889  143.3440  166.2083 C.ar    1  UNL1       -0.0012
     22 C         141.1792  142.9018  165.5842 C.ar    1  UNL1        0.0135
     23 C         144.0983  143.8787  163.7170 C.3     1  UNL1        0.2525
     24 O         142.8826  143.0048  163.6251 O.3     1  UNL1       -0.4717
@<TRIPOS>BOND
     1    23    24    1
     2    24    17    1
     3    17    18   ar
     4    18    19   ar
     5    19    20   ar
     6    20    21   ar
     7    21    22   ar
     8    22    16    1
     9    16     1    1
    10     1     2    1
    11     2     3   ar
    12     3     4   ar
    13     4     5   ar
    14     5     6   ar
    15     6     7   ar
    16     7     8    1
    17     1     9    1
    18     9    10    1
    19    10    11    1
    20    11    12    1
    21    12    13    1
    22    13    14    1
    23    22    17   ar
    24     7     2   ar
    25    14     9    1
    26    12    15    1
@<TRIPOS>MOLECULE
*****
 24 26 0 0 0
SMALL
GASTEIGER

@<TRIPOS>ATOM
      1 C         140.5367  141.7159  166.3256 C.3     1  UNL1        0.0868
      2 C         139.6332  142.4832  165.4064 C.ar    1  UNL1        0.0200
      3 C         139.9225  143.9227  165.0997 C.ar    1  UNL1       -0.0007
      4 C         139.0189  144.6900  164.1805 C.ar    1  UNL1       -0.0001
      5 C         137.8260  144.0177  163.5681 C.ar    1  UNL1        0.0023
      6 C         137.5367  142.5782  163.8748 C.ar    1  UNL1        0.0294
      7 C         138.4402  141.8109  164.7940 C.ar    1  UNL1        0.1374
      8 F         138.1509  140.3714  165.1007 F       1  UNL1       -0.2045
      9 N         140.2439  141.6662  167.7959 N.3     1  UNL1       -0.2676
     10 C         139.6629  140.4239  168.4034 C.3     1  UNL1        0.0896
     11 C         139.3701  140.3742  169.8736 C.3     1  UNL1        0.0862
     12 N         139.6584  141.5668  170.7365 N.3     1  UNL1       -0.2951
     13 C         140.2393  142.8092  170.1290 C.3     1  UNL1        0.0862
     14 C         140.5321  142.8589  168.6587 C.3     1  UNL1        0.0896
     15 H         140.3112  141.2582  171.4568 H       1  UNL1        0.1233
     16 C         141.7331  140.9983  165.7744 C.3     1  UNL1        0.0500
     17 C         141.6074  140.0229  163.3696 C.ar    1  UNL1        0.1347
     18 C         141.4220  138.8519  162.4509 C.ar    1  UNL1        0.0366
     19 C         141.1769  137.4851  163.0180 C.ar    1  UNL1        0.0031
     20 C         141.1171  137.2893  164.5040 C.ar    1  UNL1       -0.0001
     21 C         141.3025  138.4604  165.4228 C.ar    1  UNL1       -0.0012
     22 C         141.5477  139.8272  164.8556 C.ar    1  UNL1        0.0135
     23 C         140.8258  142.0287  161.9150 C.3     1  UNL1        0.2525
     24 O         141.8525  141.3898  162.8025 O.3     1  UNL1       -0.4717
@<TRIPOS>BOND
     1    23    24    1
     2    24    17    1
     3    17    18   ar
     4    18    19   ar
     5    19    20   ar
     6    20    21   ar
     7    21    22   ar
     8    22    16    1
     9    16     1    1
    10     1     2    1
    11     2     3   ar
    12     3     4   ar
    13     4     5   ar
    14     5     6   ar
    15     6     7   ar
    16     7     8    1
    17     1     9    1
    18     9    10    1
    19    10    11    1
    20    11    12    1
    21    12    13    1
    22    13    14    1
    23    22    17   ar
    24     7     2   ar
    25    14     9    1
    26    12    15    1
@<TRIPOS>MOLECULE
*****
 24 26 0 0 0
SMALL
GASTEIGER

@<TRIPOS>ATOM
      1 C         140.5486  141.3772  166.4944 C.3     1  UNL1        0.0868
      2 C         139.6606  142.2439  165.6518 C.ar    1  UNL1        0.0200
      3 C         139.9199  143.7184  165.5600 C.ar    1  UNL1       -0.0007
      4 C         139.0318  144.5852  164.7174 C.ar    1  UNL1       -0.0001
      5 C         137.8843  143.9773  163.9665 C.ar    1  UNL1        0.0023
      6 C         137.6249  142.5028  164.0583 C.ar    1  UNL1        0.0294
      7 C         138.5130  141.6361  164.9009 C.ar    1  UNL1        0.1374
      8 F         138.2536  140.1615  164.9927 F       1  UNL1       -0.2045
      9 N         140.4377  141.4192  167.9898 N.3     1  UNL1       -0.2676
     10 C         139.6435  140.3719  168.7126 C.3     1  UNL1        0.0896
     11 C         139.5325  140.4139  170.2079 C.3     1  UNL1        0.0862
     12 N         140.2157  141.5032  170.9803 N.3     1  UNL1       -0.2951
     13 C         141.0099  142.5504  170.2575 C.3     1  UNL1        0.0862
     14 C         141.1209  142.5084  168.7622 C.3     1  UNL1        0.0896
     15 H         140.8544  141.0464  171.6313 H       1  UNL1        0.1233
     16 C         141.5477  140.4684  165.8418 C.3     1  UNL1        0.0500
     17 C         143.6223  140.2251  164.2968 C.ar    1  UNL1        0.1347
     18 C         144.8866  140.7907  163.7210 C.ar    1  UNL1        0.0366
     19 C         145.3407  142.1651  164.1142 C.ar    1  UNL1        0.0031
     20 C         144.5304  142.9740  165.0833 C.ar    1  UNL1       -0.0001
     21 C         143.2661  142.4085  165.6592 C.ar    1  UNL1       -0.0012
     22 C         142.8121  141.0340  165.2659 C.ar    1  UNL1        0.0135
     23 C         143.3682  138.3684  162.4974 C.3     1  UNL1        0.2525
     24 O         143.1682  138.8506  163.9036 O.3     1  UNL1       -0.4717
@<TRIPOS>BOND
     1    23    24    1
     2    24    17    1
     3    17    18   ar
     4    18    19   ar
     5    19    20   ar
     6    20    21   ar
     7    21    22   ar
     8    22    16    1
     9    16     1    1
    10     1     2    1
    11     2     3   ar
    12     3     4   ar
    13     4     5   ar
    14     5     6   ar
    15     6     7   ar
    16     7     8    1
    17     1     9    1
    18     9    10    1
    19    10    11    1
    20    11    12    1
    21    12    13    1
    22    13    14    1
    23    22    17   ar
    24     7     2   ar
    25    14     9    1
    26    12    15    1
@<TRIPOS>MOLECULE
*****
 24 26 0 0 0
SMALL
GASTEIGER

@<TRIPOS>ATOM
      1 C         141.2772  141.1170  166.9928 C.3     1  UNL1        0.0868
      2 C         142.4181  140.7548  166.0888 C.ar    1  UNL1        0.0200
      3 C         142.9515  139.3529  166.0791 C.ar    1  UNL1       -0.0007
      4 C         144.0925  138.9908  165.1751 C.ar    1  UNL1       -0.0001
      5 C         144.7000  140.0306  164.2809 C.ar    1  UNL1        0.0023
      6 C         144.1666  141.4325  164.2905 C.ar    1  UNL1        0.0294
      7 C         143.0257  141.7947  165.1945 C.ar    1  UNL1        0.1374
      8 F         142.4922  143.1966  165.2041 F       1  UNL1       -0.2045
      9 N         141.5197  141.9728  168.2006 N.3     1  UNL1       -0.2676
     10 C         140.4582  142.9216  168.6729 C.3     1  UNL1        0.0896
     11 C         140.7007  143.7774  169.8806 C.3     1  UNL1        0.0862
     12 N         142.0047  143.6845  170.6161 N.3     1  UNL1       -0.2951
     13 C         143.0662  142.7358  170.1438 C.3     1  UNL1        0.0862
     14 C         142.8237  141.8799  168.9360 C.3     1  UNL1        0.0896
     15 H         141.7829  143.4236  171.5769 H       1  UNL1        0.1233
     16 C         139.8937  140.6233  166.6890 C.3     1  UNL1        0.0500
     17 C         138.4450  140.2428  164.5661 C.ar    1  UNL1        0.1347
     18 C         137.6936  140.7933  163.3904 C.ar    1  UNL1        0.0366
     19 C         137.6394  142.2748  163.1618 C.ar    1  UNL1        0.0031
     20 C         138.3367  143.2058  164.1090 C.ar    1  UNL1       -0.0001
     21 C         139.0882  142.6553  165.2846 C.ar    1  UNL1       -0.0012
     22 C         139.1423  141.1738  165.5132 C.ar    1  UNL1        0.0135
     23 C         138.8889  137.8433  163.6743 C.3     1  UNL1        0.2525
     24 O         138.4992  138.7613  164.7947 O.3     1  UNL1       -0.4717
@<TRIPOS>BOND
     1    23    24    1
     2    24    17    1
     3    17    18   ar
     4    18    19   ar
     5    19    20   ar
     6    20    21   ar
     7    21    22   ar
     8    22    16    1
     9    16     1    1
    10     1     2    1
    11     2     3   ar
    12     3     4   ar
    13     4     5   ar
    14     5     6   ar
    15     6     7   ar
    16     7     8    1
    17     1     9    1
    18     9    10    1
    19    10    11    1
    20    11    12    1
    21    12    13    1
    22    13    14    1
    23    22    17   ar
    24     7     2   ar
    25    14     9    1
    26    12    15    1
@<TRIPOS>MOLECULE
*****
 24 26 0 0 0
SMALL
GASTEIGER

@<TRIPOS>ATOM
      1 C         140.8292  140.7234  166.9818 C.3     1  UNL1        0.0868
      2 C         140.7874  139.5231  166.0832 C.ar    1  UNL1        0.0200
      3 C         139.4680  138.9566  165.6493 C.ar    1  UNL1       -0.0007
      4 C         139.4262  137.7562  164.7507 C.ar    1  UNL1       -0.0001
      5 C         140.7038  137.1224  164.2860 C.ar    1  UNL1        0.0023
      6 C         142.0232  137.6889  164.7199 C.ar    1  UNL1        0.0294
      7 C         142.0650  138.8892  165.6185 C.ar    1  UNL1        0.1374
      8 F         143.3845  139.4557  166.0524 F       1  UNL1       -0.2045
      9 N         141.1004  140.5540  168.4474 N.3     1  UNL1       -0.2676
     10 C         139.9657  140.3039  169.3961 C.3     1  UNL1        0.0896
     11 C         140.2369  140.1345  170.8616 C.3     1  UNL1        0.0862
     12 N         141.6426  140.2153  171.3784 N.3     1  UNL1       -0.2951
     13 C         142.7773  140.4654  170.4298 C.3     1  UNL1        0.0862
     14 C         142.5062  140.6348  168.9642 C.3     1  UNL1        0.0896
     15 H         141.8371  139.3281  171.8427 H       1  UNL1        0.1233
     16 C         140.5998  142.0930  166.4149 C.3     1  UNL1        0.0500
     17 C         141.3564  143.6552  164.4817 C.ar    1  UNL1        0.1347
     18 C         142.4500  144.3449  163.7212 C.ar    1  UNL1        0.0366
     19 C         143.8806  144.1622  164.1334 C.ar    1  UNL1        0.0031
     20 C         144.2176  143.2897  165.3061 C.ar    1  UNL1       -0.0001
     21 C         143.1241  142.6000  166.0666 C.ar    1  UNL1       -0.0012
     22 C         141.6935  142.7828  165.6544 C.ar    1  UNL1        0.0135
     23 C         139.0630  144.8392  164.7788 C.3     1  UNL1        0.2525
     24 O         139.9258  143.8379  164.0695 O.3     1  UNL1       -0.4717
@<TRIPOS>BOND
     1    23    24    1
     2    24    17    1
     3    17    18   ar
     4    18    19   ar
     5    19    20   ar
     6    20    21   ar
     7    21    22   ar
     8    22    16    1
     9    16     1    1
    10     1     2    1
    11     2     3   ar
    12     3     4   ar
    13     4     5   ar
    14     5     6   ar
    15     6     7   ar
    16     7     8    1
    17     1     9    1
    18     9    10    1
    19    10    11    1
    20    11    12    1
    21    12    13    1
    22    13    14    1
    23    22    17   ar
    24     7     2   ar
    25    14     9    1
    26    12    15    1
