@<TRIPOS>MOLECULE
*****
 28 31 0 0 0
SMALL
GASTEIGER

@<TRIPOS>ATOM
      1 C         141.9051  140.2861  166.4065 C.2     1  UNL1        0.0025
      2 C         142.4385  141.0506  167.5818 C.2     1  UNL1        0.0130
      3 C         141.6010  141.2090  168.8161 C.3     1  UNL1        0.1542
      4 C         142.9719  141.8150  168.7570 C.3     1  UNL1        0.0614
      5 C         143.5052  142.5794  169.9323 C.3     1  UNL1        0.0725
      6 N         142.6677  142.7377  171.1666 N.3     1  UNL1       -0.2972
      7 C         141.2969  142.1317  171.2257 C.3     1  UNL1        0.0725
      8 C         140.7636  141.3673  170.0504 C.3     1  UNL1        0.0614
      9 O         140.2301  140.6029  168.8752 O.3     1  UNL1       -0.4785
     10 C         139.6968  139.8385  167.7000 C.ar    1  UNL1        0.1386
     11 C         138.3259  139.2325  167.7590 C.ar    1  UNL1        0.0369
     12 C         137.7925  138.4681  166.5838 C.ar    1  UNL1        0.0031
     13 C         138.6300  138.3097  165.3495 C.ar    1  UNL1        0.0002
     14 C         140.0008  138.9157  165.2904 C.ar    1  UNL1        0.0030
     15 C         140.5343  139.6801  166.4656 C.ar    1  UNL1        0.0338
     16 H         142.5534  143.7399  171.3182 H       1  UNL1        0.1233
     17 C         143.5731  140.3480  162.9023 C.ar    1  UNL1        0.0830
     18 C         142.4934  140.7854  163.8473 C.ar    1  UNL1        0.0115
     19 C         142.7426  140.1277  165.1722 C.ar    1  UNL1        0.0070
     20 C         143.9763  139.2839  165.0461 C.ar    1  UNL1        0.0356
     21 S         144.4896  139.4200  163.6432 S.2     1  UNL1       -0.0819
     22 N         144.3222  142.0929  161.1292 N.am    1  UNL1       -0.2757
     23 C         143.7119  140.7653  161.4682 C.2     1  UNL1        0.2550
     24 O         143.2404  139.8550  160.3732 O.2     1  UNL1       -0.2694
     25 C         143.3054  143.1515  158.9854 C.3     1  UNL1        0.0233
     26 C         144.4610  142.5103  159.6952 C.3     1  UNL1        0.0938
     27 C         144.7936  143.0032  162.2243 C.3     1  UNL1        0.0938
     28 C         143.9343  144.1495  162.6687 C.3     1  UNL1        0.0233
@<TRIPOS>BOND
     1    25    26    1
     2    26    22    1
     3    22    27    1
     4    27    28    1
     5    22    23   am
     6    23    24    2
     7    23    17    1
     8    17    18   ar
     9    18    19   ar
    10    19     1    1
    11     1     2    2
    12     2     3    1
    13     3     4    1
    14     4     5    1
    15     5     6    1
    16     6     7    1
    17     7     8    1
    18     3     9    1
    19     9    10    1
    20    10    11   ar
    21    11    12   ar
    22    12    13   ar
    23    13    14   ar
    24    14    15   ar
    25    19    20   ar
    26    20    21   ar
    27    21    17   ar
    28    15     1    1
    29     8     3    1
    30    15    10   ar
    31     6    16    1
@<TRIPOS>MOLECULE
*****
 28 31 0 0 0
SMALL
GASTEIGER

@<TRIPOS>ATOM
      1 C         140.8321  142.0396  166.5239 C.2     1  UNL1        0.0025
      2 C         141.4312  142.3901  167.8537 C.2     1  UNL1        0.0130
      3 C         141.0383  141.6201  169.0796 C.3     1  UNL1        0.1542
      4 C         142.0303  142.7405  169.1835 C.3     1  UNL1        0.0614
      5 C         142.6294  143.0909  170.5132 C.3     1  UNL1        0.0725
      6 N         142.2365  142.3209  171.7391 N.3     1  UNL1       -0.2972
      7 C         141.2445  141.2006  171.6353 C.3     1  UNL1        0.0725
      8 C         140.6454  140.8502  170.3056 C.3     1  UNL1        0.0614
      9 O         140.0463  140.4998  168.9757 O.3     1  UNL1       -0.4785
     10 C         139.4472  140.1494  167.6460 C.ar    1  UNL1        0.1386
     11 C         138.4552  139.0290  167.5421 C.ar    1  UNL1        0.0369
     12 C         137.8561  138.6786  166.2124 C.ar    1  UNL1        0.0031
     13 C         138.2490  139.4485  164.9865 C.ar    1  UNL1        0.0002
     14 C         139.2409  140.5688  165.0903 C.ar    1  UNL1        0.0030
     15 C         139.8401  140.9193  166.4201 C.ar    1  UNL1        0.0338
     16 H         141.8505  142.9957  172.3995 H       1  UNL1        0.1233
     17 C         142.3775  143.5003  163.2768 C.ar    1  UNL1        0.0830
     18 C         142.3424  142.4627  164.3595 C.ar    1  UNL1        0.0115
     19 C         141.2249  142.8095  165.2980 C.ar    1  UNL1        0.0070
     20 C         140.5693  144.0615  164.7954 C.ar    1  UNL1        0.0356
     21 S         141.2816  144.4884  163.5462 S.2     1  UNL1       -0.0819
     22 N         143.0687  142.7338  160.8926 N.am    1  UNL1       -0.2757
     23 C         143.3395  143.5423  162.1267 C.2     1  UNL1        0.2550
     24 O         144.5722  144.3927  162.2107 O.2     1  UNL1       -0.2694
     25 C         143.5440  143.1374  158.3703 C.3     1  UNL1        0.0233
     26 C         144.0307  142.7759  159.7424 C.3     1  UNL1        0.0938
     27 C         141.8359  141.8834  160.8086 C.3     1  UNL1        0.0938
     28 C         141.9258  140.4061  161.0525 C.3     1  UNL1        0.0233
@<TRIPOS>BOND
     1    25    26    1
     2    26    22    1
     3    22    27    1
     4    27    28    1
     5    22    23   am
     6    23    24    2
     7    23    17    1
     8    17    18   ar
     9    18    19   ar
    10    19     1    1
    11     1     2    2
    12     2     3    1
    13     3     4    1
    14     4     5    1
    15     5     6    1
    16     6     7    1
    17     7     8    1
    18     3     9    1
    19     9    10    1
    20    10    11   ar
    21    11    12   ar
    22    12    13   ar
    23    13    14   ar
    24    14    15   ar
    25    19    20   ar
    26    20    21   ar
    27    21    17   ar
    28    15     1    1
    29     8     3    1
    30    15    10   ar
    31     6    16    1
@<TRIPOS>MOLECULE
*****
 28 31 0 0 0
SMALL
GASTEIGER

@<TRIPOS>ATOM
      1 C         140.6881  142.1326  166.1153 C.2     1  UNL1        0.0025
      2 C         140.4857  142.5114  167.5525 C.2     1  UNL1        0.0130
      3 C         141.1575  141.7232  168.6376 C.3     1  UNL1        0.1542
      4 C         140.2834  142.8902  168.9897 C.3     1  UNL1        0.0614
      5 C         140.0811  143.2690  170.4269 C.3     1  UNL1        0.0725
      6 N         140.7529  142.4808  171.5120 N.3     1  UNL1       -0.2972
      7 C         141.6269  141.3138  171.1599 C.3     1  UNL1        0.0725
      8 C         141.8293  140.9350  169.7227 C.3     1  UNL1        0.0614
      9 O         142.0316  140.5561  168.2855 O.3     1  UNL1       -0.4785
     10 C         142.2339  140.1773  166.8483 C.ar    1  UNL1        0.1386
     11 C         143.1080  139.0102  166.4962 C.ar    1  UNL1        0.0369
     12 C         143.3103  138.6314  165.0590 C.ar    1  UNL1        0.0031
     13 C         142.6385  139.4197  163.9739 C.ar    1  UNL1        0.0002
     14 C         141.7645  140.5867  164.3260 C.ar    1  UNL1        0.0030
     15 C         141.5621  140.9655  165.7632 C.ar    1  UNL1        0.0338
     16 H         140.0136  142.1230  172.1169 H       1  UNL1        0.1233
     17 C         139.6531  144.3327  163.0898 C.ar    1  UNL1        0.0830
     18 C         140.7064  143.7060  163.9545 C.ar    1  UNL1        0.0115
     19 C         140.0163  142.9208  165.0302 C.ar    1  UNL1        0.0070
     20 C         138.5364  143.0622  164.8302 C.ar    1  UNL1        0.0356
     21 S         138.3119  143.9348  163.6310 S.2     1  UNL1       -0.0819
     22 N         140.1137  144.5839  160.5453 N.am    1  UNL1       -0.2757
     23 C         139.8980  145.2043  161.8938 C.2     1  UNL1        0.2550
     24 O         139.9272  146.6962  162.0464 O.2     1  UNL1       -0.2694
     25 C         140.2021  144.8938  157.9672 C.3     1  UNL1        0.0233
     26 C         140.3585  145.4555  159.3493 C.3     1  UNL1        0.0938
     27 C         140.0845  143.0920  160.3927 C.3     1  UNL1        0.0938
     28 C         141.3546  142.3017  160.5034 C.3     1  UNL1        0.0233
@<TRIPOS>BOND
     1    25    26    1
     2    26    22    1
     3    22    27    1
     4    27    28    1
     5    22    23   am
     6    23    24    2
     7    23    17    1
     8    17    18   ar
     9    18    19   ar
    10    19     1    1
    11     1     2    2
    12     2     3    1
    13     3     4    1
    14     4     5    1
    15     5     6    1
    16     6     7    1
    17     7     8    1
    18     3     9    1
    19     9    10    1
    20    10    11   ar
    21    11    12   ar
    22    12    13   ar
    23    13    14   ar
    24    14    15   ar
    25    19    20   ar
    26    20    21   ar
    27    21    17   ar
    28    15     1    1
    29     8     3    1
    30    15    10   ar
    31     6    16    1
@<TRIPOS>MOLECULE
*****
 28 31 0 0 0
SMALL
GASTEIGER

@<TRIPOS>ATOM
      1 C         140.3022  142.1116  165.3412 C.2     1  UNL1        0.0025
      2 C         140.3664  142.3877  166.8142 C.2     1  UNL1        0.0130
      3 C         139.9743  141.3224  167.7947 C.3     1  UNL1        0.1542
      4 C         140.4306  142.6637  168.2872 C.3     1  UNL1        0.0614
      5 C         140.4948  142.9398  169.7601 C.3     1  UNL1        0.0725
      6 N         140.1027  141.8745  170.7406 N.3     1  UNL1       -0.2972
      7 C         139.6464  140.5331  170.2482 C.3     1  UNL1        0.0725
      8 C         139.5823  140.2571  168.7752 C.3     1  UNL1        0.0614
      9 O         139.5181  139.9810  167.3022 O.3     1  UNL1       -0.4785
     10 C         139.4539  139.7049  165.8293 C.ar    1  UNL1        0.1386
     11 C         138.9976  138.3635  165.3367 C.ar    1  UNL1        0.0369
     12 C         138.9334  138.0875  163.8638 C.ar    1  UNL1        0.0031
     13 C         139.3255  139.1528  162.8833 C.ar    1  UNL1        0.0002
     14 C         139.7818  140.4941  163.3757 C.ar    1  UNL1        0.0030
     15 C         139.8460  140.7702  164.8487 C.ar    1  UNL1        0.0338
     16 H         139.3415  142.2566  171.3019 H       1  UNL1        0.1233
     17 C         140.6579  144.7061  162.4763 C.ar    1  UNL1        0.0830
     18 C         139.8896  143.6249  163.1768 C.ar    1  UNL1        0.0115
     19 C         140.6943  143.1769  164.3607 C.ar    1  UNL1        0.0070
     20 C         141.9600  143.9813  164.3919 C.ar    1  UNL1        0.0356
     21 S         141.9375  144.9264  163.2273 S.2     1  UNL1       -0.0819
     22 N         140.7821  145.0523  159.9044 N.am    1  UNL1       -0.2757
     23 C         140.2229  145.4385  161.2416 C.2     1  UNL1        0.2550
     24 O         139.2287  146.5570  161.3441 O.2     1  UNL1       -0.2694
     25 C         141.2642  145.8692  157.4856 C.3     1  UNL1        0.0233
     26 C         140.3472  145.7847  158.6698 C.3     1  UNL1        0.0938
     27 C         141.7763  143.9338  159.8019 C.3     1  UNL1        0.0938
     28 C         141.3129  142.5466  159.4690 C.3     1  UNL1        0.0233
@<TRIPOS>BOND
     1    25    26    1
     2    26    22    1
     3    22    27    1
     4    27    28    1
     5    22    23   am
     6    23    24    2
     7    23    17    1
     8    17    18   ar
     9    18    19   ar
    10    19     1    1
    11     1     2    2
    12     2     3    1
    13     3     4    1
    14     4     5    1
    15     5     6    1
    16     6     7    1
    17     7     8    1
    18     3     9    1
    19     9    10    1
    20    10    11   ar
    21    11    12   ar
    22    12    13   ar
    23    13    14   ar
    24    14    15   ar
    25    19    20   ar
    26    20    21   ar
    27    21    17   ar
    28    15     1    1
    29     8     3    1
    30    15    10   ar
    31     6    16    1
@<TRIPOS>MOLECULE
*****
 28 31 0 0 0
SMALL
GASTEIGER

@<TRIPOS>ATOM
      1 C         141.3694  141.2328  166.5270 C.2     1  UNL1        0.0025
      2 C         141.8958  141.7918  167.8157 C.2     1  UNL1        0.0130
      3 C         141.2215  141.4518  169.1117 C.3     1  UNL1        0.1542
      4 C         142.4221  142.3508  169.1042 C.3     1  UNL1        0.0614
      5 C         142.9485  142.9097  170.3928 C.3     1  UNL1        0.0725
      6 N         142.2741  142.5697  171.6888 N.3     1  UNL1       -0.2972
      7 C         141.0734  141.6707  171.6962 C.3     1  UNL1        0.0725
      8 C         140.5471  141.1117  170.4077 C.3     1  UNL1        0.0614
      9 O         140.0207  140.5527  169.1190 O.3     1  UNL1       -0.4785
     10 C         139.4944  139.9938  167.8304 C.ar    1  UNL1        0.1386
     11 C         138.2936  139.0947  167.8378 C.ar    1  UNL1        0.0369
     12 C         137.7673  138.5358  166.5492 C.ar    1  UNL1        0.0031
     13 C         138.4416  138.8758  165.2532 C.ar    1  UNL1        0.0002
     14 C         139.6423  139.7748  165.2458 C.ar    1  UNL1        0.0030
     15 C         140.1687  140.3338  166.5344 C.ar    1  UNL1        0.0338
     16 H         141.9839  143.4521  172.1101 H       1  UNL1        0.1233
     17 C         142.6242  142.6847  163.1531 C.ar    1  UNL1        0.0830
     18 C         141.7002  142.7250  164.3341 C.ar    1  UNL1        0.0115
     19 C         142.0438  141.5729  165.2310 C.ar    1  UNL1        0.0070
     20 C         143.1801  140.8205  164.6044 C.ar    1  UNL1        0.0356
     21 S         143.5388  141.5076  163.3202 S.2     1  UNL1       -0.0819
     22 N         141.6036  143.5361  160.9208 N.am    1  UNL1       -0.2757
     23 C         142.6321  143.6517  162.0065 C.2     1  UNL1        0.2550
     24 O         143.6686  144.7343  161.9455 O.2     1  UNL1       -0.2694
     25 C         140.5161  144.4613  158.7502 C.3     1  UNL1        0.0233
     26 C         141.6115  144.5031  159.7742 C.3     1  UNL1        0.0938
     27 C         140.5671  142.4535  160.9818 C.3     1  UNL1        0.0938
     28 C         140.8556  141.1049  160.3921 C.3     1  UNL1        0.0233
@<TRIPOS>BOND
     1    25    26    1
     2    26    22    1
     3    22    27    1
     4    27    28    1
     5    22    23   am
     6    23    24    2
     7    23    17    1
     8    17    18   ar
     9    18    19   ar
    10    19     1    1
    11     1     2    2
    12     2     3    1
    13     3     4    1
    14     4     5    1
    15     5     6    1
    16     6     7    1
    17     7     8    1
    18     3     9    1
    19     9    10    1
    20    10    11   ar
    21    11    12   ar
    22    12    13   ar
    23    13    14   ar
    24    14    15   ar
    25    19    20   ar
    26    20    21   ar
    27    21    17   ar
    28    15     1    1
    29     8     3    1
    30    15    10   ar
    31     6    16    1
@<TRIPOS>MOLECULE
*****
 28 31 0 0 0
SMALL
GASTEIGER

@<TRIPOS>ATOM
      1 C         141.1386  140.2873  165.9332 C.2     1  UNL1        0.0025
      2 C         141.6424  139.9820  167.3128 C.2     1  UNL1        0.0130
      3 C         141.4586  140.9811  168.4164 C.3     1  UNL1        0.1542
      4 C         142.1462  139.6769  168.6922 C.3     1  UNL1        0.0614
      5 C         142.6500  139.3717  170.0717 C.3     1  UNL1        0.0725
      6 N         142.4662  140.3707  171.1754 N.3     1  UNL1       -0.2972
      7 C         141.7785  141.6750  170.8996 C.3     1  UNL1        0.0725
      8 C         141.2747  141.9801  169.5201 C.3     1  UNL1        0.0614
      9 O         140.7709  142.2854  168.1406 O.3     1  UNL1       -0.4785
     10 C         140.2671  142.5905  166.7611 C.ar    1  UNL1        0.1386
     11 C         139.5795  143.8948  166.4852 C.ar    1  UNL1        0.0369
     12 C         139.0757  144.2000  165.1057 C.ar    1  UNL1        0.0031
     13 C         139.2595  143.2009  164.0020 C.ar    1  UNL1        0.0002
     14 C         139.9472  141.8967  164.2779 C.ar    1  UNL1        0.0030
     15 C         140.4510  141.5915  165.6574 C.ar    1  UNL1        0.0338
     16 H         143.3970  140.5970  171.5259 H       1  UNL1        0.1233
     17 C         142.0620  138.2277  162.7755 C.ar    1  UNL1        0.0830
     18 C         142.1694  139.4727  163.6053 C.ar    1  UNL1        0.0115
     19 C         141.3225  139.2882  164.8295 C.ar    1  UNL1        0.0070
     20 C         140.6917  137.9293  164.7563 C.ar    1  UNL1        0.0356
     21 S         141.1487  137.2738  163.4868 S.2     1  UNL1       -0.0819
     22 N         142.0182  138.2301  160.1778 N.am    1  UNL1       -0.2757
     23 C         142.7476  137.9802  161.4645 C.2     1  UNL1        0.2550
     24 O         144.1625  137.4828  161.4401 O.2     1  UNL1       -0.2694
     25 C         141.8920  137.7993  157.6187 C.3     1  UNL1        0.0233
     26 C         142.7037  137.9825  158.8668 C.3     1  UNL1        0.0938
     27 C         140.6032  138.7275  160.2021 C.3     1  UNL1        0.0938
     28 C         140.3264  140.2017  160.2045 C.3     1  UNL1        0.0233
@<TRIPOS>BOND
     1    25    26    1
     2    26    22    1
     3    22    27    1
     4    27    28    1
     5    22    23   am
     6    23    24    2
     7    23    17    1
     8    17    18   ar
     9    18    19   ar
    10    19     1    1
    11     1     2    2
    12     2     3    1
    13     3     4    1
    14     4     5    1
    15     5     6    1
    16     6     7    1
    17     7     8    1
    18     3     9    1
    19     9    10    1
    20    10    11   ar
    21    11    12   ar
    22    12    13   ar
    23    13    14   ar
    24    14    15   ar
    25    19    20   ar
    26    20    21   ar
    27    21    17   ar
    28    15     1    1
    29     8     3    1
    30    15    10   ar
    31     6    16    1
@<TRIPOS>MOLECULE
*****
 28 31 0 0 0
SMALL
GASTEIGER

@<TRIPOS>ATOM
      1 C         142.1871  141.6582  165.4815 C.2     1  UNL1        0.0025
      2 C         142.2759  140.8680  166.7535 C.2     1  UNL1        0.0130
      3 C         141.3247  141.1487  167.8788 C.3     1  UNL1        0.1542
      4 C         142.3647  140.0778  168.0253 C.3     1  UNL1        0.0614
      5 C         142.4535  139.2876  169.2972 C.3     1  UNL1        0.0725
      6 N         141.5023  139.5683  170.4225 N.3     1  UNL1       -0.2972
      7 C         140.4622  140.6392  170.2760 C.3     1  UNL1        0.0725
      8 C         140.3734  141.4293  169.0041 C.3     1  UNL1        0.0614
      9 O         140.2846  142.2196  167.7322 O.3     1  UNL1       -0.4785
     10 C         140.1958  143.0098  166.4603 C.ar    1  UNL1        0.1386
     11 C         139.1557  144.0807  166.3137 C.ar    1  UNL1        0.0369
     12 C         139.0669  144.8709  165.0418 C.ar    1  UNL1        0.0031
     13 C         140.0182  144.5902  163.9165 C.ar    1  UNL1        0.0002
     14 C         141.0582  143.5193  164.0631 C.ar    1  UNL1        0.0030
     15 C         141.1470  142.7291  165.3350 C.ar    1  UNL1        0.0338
     16 H         142.0698  139.8179  171.2325 H       1  UNL1        0.1233
     17 C         144.0336  140.6896  162.2077 C.ar    1  UNL1        0.0830
     18 C         142.7775  140.7983  163.0204 C.ar    1  UNL1        0.0115
     19 C         143.1383  141.3775  164.3562 C.ar    1  UNL1        0.0070
     20 C         144.6174  141.6267  164.3691 C.ar    1  UNL1        0.0356
     21 S         145.1707  141.2016  163.0413 S.2     1  UNL1       -0.0819
     22 N         144.0271  141.1002  159.6423 N.am    1  UNL1       -0.2757
     23 C         144.1347  140.1616  160.8074 C.2     1  UNL1        0.2550
     24 O         144.3435  138.6949  160.5721 O.2     1  UNL1       -0.2694
     25 C         144.6948  141.4355  157.1540 C.3     1  UNL1        0.0233
     26 C         144.1282  140.5722  158.2420 C.3     1  UNL1        0.0938
     27 C         143.8183  142.5669  159.8776 C.3     1  UNL1        0.0938
     28 C         142.4279  143.1270  159.9336 C.3     1  UNL1        0.0233
@<TRIPOS>BOND
     1    25    26    1
     2    26    22    1
     3    22    27    1
     4    27    28    1
     5    22    23   am
     6    23    24    2
     7    23    17    1
     8    17    18   ar
     9    18    19   ar
    10    19     1    1
    11     1     2    2
    12     2     3    1
    13     3     4    1
    14     4     5    1
    15     5     6    1
    16     6     7    1
    17     7     8    1
    18     3     9    1
    19     9    10    1
    20    10    11   ar
    21    11    12   ar
    22    12    13   ar
    23    13    14   ar
    24    14    15   ar
    25    19    20   ar
    26    20    21   ar
    27    21    17   ar
    28    15     1    1
    29     8     3    1
    30    15    10   ar
    31     6    16    1
@<TRIPOS>MOLECULE
*****
 28 31 0 0 0
SMALL
GASTEIGER

@<TRIPOS>ATOM
      1 C         140.9612  141.6654  166.4921 C.2     1  UNL1        0.0025
      2 C         141.5794  142.1232  167.7799 C.2     1  UNL1        0.0130
      3 C         141.1037  141.5547  169.0840 C.3     1  UNL1        0.1542
      4 C         142.1976  142.5809  169.0677 C.3     1  UNL1        0.0614
      5 C         142.8157  143.0386  170.3554 C.3     1  UNL1        0.0725
      6 N         142.3400  142.4701  171.6595 N.3     1  UNL1       -0.2972
      7 C         141.2461  141.4439  171.6758 C.3     1  UNL1        0.0725
      8 C         140.6280  140.9862  170.3880 C.3     1  UNL1        0.0614
      9 O         140.0098  140.5284  169.1002 O.3     1  UNL1       -0.4785
     10 C         139.3916  140.0707  167.8125 C.ar    1  UNL1        0.1386
     11 C         138.2977  139.0445  167.8287 C.ar    1  UNL1        0.0369
     12 C         137.6795  138.5867  166.5410 C.ar    1  UNL1        0.0031
     13 C         138.1553  139.1552  165.2369 C.ar    1  UNL1        0.0002
     14 C         139.2491  140.1814  165.2206 C.ar    1  UNL1        0.0030
     15 C         139.8674  140.6392  166.5084 C.ar    1  UNL1        0.0338
     16 H         142.0147  143.2562  172.2222 H       1  UNL1        0.1233
     17 C         142.1494  142.4241  162.8758 C.ar    1  UNL1        0.0830
     18 C         141.6849  141.4603  163.9271 C.ar    1  UNL1        0.0115
     19 C         141.4369  142.2339  165.1881 C.ar    1  UNL1        0.0070
     20 C         141.7483  143.6758  164.9161 C.ar    1  UNL1        0.0356
     21 S         142.1886  143.7933  163.4870 S.2     1  UNL1       -0.0819
     22 N         143.7581  141.2957  161.1762 N.am    1  UNL1       -0.2757
     23 C         142.5112  142.0791  161.4615 C.2     1  UNL1        0.2550
     24 O         141.6261  142.5176  160.3326 O.2     1  UNL1       -0.2694
     25 C         143.4508  139.7961  159.0768 C.3     1  UNL1        0.0233
     26 C         144.1199  140.9507  159.7619 C.3     1  UNL1        0.0938
     27 C         144.6432  140.8572  162.3051 C.3     1  UNL1        0.0938
     28 C         145.5565  141.8446  162.9691 C.3     1  UNL1        0.0233
@<TRIPOS>BOND
     1    25    26    1
     2    26    22    1
     3    22    27    1
     4    27    28    1
     5    22    23   am
     6    23    24    2
     7    23    17    1
     8    17    18   ar
     9    18    19   ar
    10    19     1    1
    11     1     2    2
    12     2     3    1
    13     3     4    1
    14     4     5    1
    15     5     6    1
    16     6     7    1
    17     7     8    1
    18     3     9    1
    19     9    10    1
    20    10    11   ar
    21    11    12   ar
    22    12    13   ar
    23    13    14   ar
    24    14    15   ar
    25    19    20   ar
    26    20    21   ar
    27    21    17   ar
    28    15     1    1
    29     8     3    1
    30    15    10   ar
    31     6    16    1
@<TRIPOS>MOLECULE
*****
 28 31 0 0 0
SMALL
GASTEIGER

@<TRIPOS>ATOM
      1 C         141.2969  140.4239  165.6334 C.2     1  UNL1        0.0025
      2 C         140.6325  140.4330  166.9782 C.2     1  UNL1        0.0130
      3 C         141.1169  141.3664  168.0478 C.3     1  UNL1        0.1542
      4 C         139.9681  140.4421  168.3230 C.3     1  UNL1        0.0614
      5 C         139.3037  140.4512  169.6678 C.3     1  UNL1        0.0725
      6 N         139.7882  141.3846  170.7374 N.3     1  UNL1       -0.2972
      7 C         140.9371  142.3089  170.4622 C.3     1  UNL1        0.0725
      8 C         141.6014  142.2998  169.1174 C.3     1  UNL1        0.0614
      9 O         142.2659  142.2907  167.7726 O.3     1  UNL1       -0.4785
     10 C         142.9302  142.2816  166.4278 C.ar    1  UNL1        0.1386
     11 C         144.0792  143.2059  166.1525 C.ar    1  UNL1        0.0369
     12 C         144.7435  143.1968  164.8078 C.ar    1  UNL1        0.0031
     13 C         144.2590  142.2634  163.7382 C.ar    1  UNL1        0.0002
     14 C         143.1102  141.3391  164.0133 C.ar    1  UNL1        0.0030
     15 C         142.4457  141.3482  165.3582 C.ar    1  UNL1        0.0338
     16 H         140.0597  140.8060  171.5323 H       1  UNL1        0.1233
     17 C         139.8877  138.6411  162.4867 C.ar    1  UNL1        0.0830
     18 C         140.2378  139.8916  163.2375 C.ar    1  UNL1        0.0115
     19 C         140.8124  139.4905  164.5638 C.ar    1  UNL1        0.0070
     20 C         140.8174  137.9921  164.6326 C.ar    1  UNL1        0.0356
     21 S         140.2460  137.4671  163.3489 S.2     1  UNL1       -0.0819
     22 N         140.1735  138.5361  159.9066 N.am    1  UNL1       -0.2757
     23 C         139.2852  138.5760  161.1146 C.2     1  UNL1        0.2550
     24 O         137.7944  138.5509  160.9505 O.2     1  UNL1       -0.2694
     25 C         140.3435  137.8576  157.4044 C.3     1  UNL1        0.0233
     26 C         139.5710  138.4711  158.5344 C.3     1  UNL1        0.0938
     27 C         141.6643  138.5613  160.0707 C.3     1  UNL1        0.0938
     28 C         142.3997  139.8684  160.0454 C.3     1  UNL1        0.0233
@<TRIPOS>BOND
     1    25    26    1
     2    26    22    1
     3    22    27    1
     4    27    28    1
     5    22    23   am
     6    23    24    2
     7    23    17    1
     8    17    18   ar
     9    18    19   ar
    10    19     1    1
    11     1     2    2
    12     2     3    1
    13     3     4    1
    14     4     5    1
    15     5     6    1
    16     6     7    1
    17     7     8    1
    18     3     9    1
    19     9    10    1
    20    10    11   ar
    21    11    12   ar
    22    12    13   ar
    23    13    14   ar
    24    14    15   ar
    25    19    20   ar
    26    20    21   ar
    27    21    17   ar
    28    15     1    1
    29     8     3    1
    30    15    10   ar
    31     6    16    1
