@<TRIPOS>MOLECULE
*****
 33 37 0 0 0
SMALL
GASTEIGER

@<TRIPOS>ATOM
      1 C         139.7057  138.7330  158.0622 C.3     1  UNL1        0.1182
      2 C         139.5277  138.4591  159.5262 C.2     1  UNL1       -0.0186
      3 C         139.2951  139.5942  160.4787 C.2     1  UNL1       -0.0110
      4 C         139.1171  139.3202  161.9428 C.2     1  UNL1       -0.0158
      5 C         139.1717  137.9111  162.4541 C.2     1  UNL1       -0.0038
      6 C         138.9937  137.6372  163.9181 C.2     1  UNL1        0.0009
      7 C         138.7611  138.7723  164.8707 C.2     1  UNL1        0.0153
      8 C         138.7065  140.1814  164.3593 C.2     1  UNL1        0.0665
      9 N         138.5073  141.5612  164.9129 N.2     1  UNL1       -0.2482
     10 C         138.5785  142.5329  163.7724 C.2     1  UNL1        0.0907
     11 C         138.8299  141.8644  162.3839 C.2     1  UNL1       -0.0139
     12 C         138.8845  140.4553  162.8954 C.3     1  UNL1        0.0820
     13 C         139.0079  142.1383  160.9200 C.3     1  UNL1        0.0486
     14 C         139.2405  141.0032  159.9674 C.3     1  UNL1        0.1029
     15 N         139.4185  141.2772  158.5033 N.am    1  UNL1       -0.2607
     16 C         139.3639  142.6863  157.9920 C.2     1  UNL1        0.3079
     17 O         139.1313  143.8214  158.9445 O.2     1  UNL1       -0.2522
     18 N         139.5419  142.9602  156.5280 N.am    1  UNL1       -0.2681
     19 C         139.6511  140.1421  157.5507 C.3     1  UNL1        0.1086
     20 H         139.6946  142.2152  155.9028 H       1  UNL1        0.1564
     21 C         139.4874  144.3693  156.0166 C.ar    1  UNL1        0.0516
     22 C         138.2094  144.9122  155.4488 C.ar    1  UNL1        0.0147
     23 C         138.1548  146.3212  154.9374 C.ar    1  UNL1        0.0013
     24 C         139.3781  147.1874  154.9937 C.ar    1  UNL1        0.0001
     25 C         140.6560  146.6446  155.5614 C.ar    1  UNL1        0.0013
     26 C         140.7106  145.2356  156.0729 C.ar    1  UNL1        0.0147
     27 N         141.3295  137.0877  156.8763 N.am    1  UNL1       -0.2792
     28 C         139.9383  137.5979  157.1096 C.2     1  UNL1        0.2309
     29 O         138.7799  136.9730  156.3903 O.2     1  UNL1       -0.2745
     30 C         142.5188  134.8550  156.2842 C.3     1  UNL1        0.0233
     31 C         141.5621  135.9526  155.9237 C.3     1  UNL1        0.0935
     32 C         142.4880  137.7126  157.5956 C.3     1  UNL1        0.0935
     33 C         143.2069  138.8801  156.9873 C.3     1  UNL1        0.0233
@<TRIPOS>BOND
     1    30    31    1
     2    31    27    1
     3    27    32    1
     4    32    33    1
     5    27    28   am
     6    28    29    2
     7     1    28    1
     8     1     2    1
     9     2     3    2
    10     3     4    1
    11     4     5    2
    12     5     6    1
    13     6     7    2
    14     7     8    1
    15     8     9    2
    16     9    10    1
    17    10    11    2
    18    11    12    1
    19    11    13    1
    20    14    13    1
    21    14    15    1
    22    15    16   am
    23    16    17    2
    24    16    18   am
    25    18    21    1
    26    21    22   ar
    27    22    23   ar
    28    23    24   ar
    29    24    25   ar
    30    25    26   ar
    31    15    19    1
    32    19     1    1
    33    14     3    1
    34    26    21   ar
    35    12     4    1
    36    12     8    1
    37    18    20    1
@<TRIPOS>MOLECULE
*****
 33 37 0 0 0
SMALL
GASTEIGER

@<TRIPOS>ATOM
      1 C         140.5631  142.8822  158.3935 C.3     1  UNL1        0.1182
      2 C         141.0943  143.4622  159.6708 C.2     1  UNL1       -0.0186
      3 C         142.1357  142.7206  160.4552 C.2     1  UNL1       -0.0110
      4 C         142.6669  143.3007  161.7326 C.2     1  UNL1       -0.0158
      5 C         142.1566  144.6223  162.2254 C.2     1  UNL1       -0.0038
      6 C         142.6877  145.2023  163.5026 C.2     1  UNL1        0.0009
      7 C         143.7292  144.4607  164.2871 C.2     1  UNL1        0.0153
      8 C         144.2395  143.1391  163.7943 C.2     1  UNL1        0.0665
      9 N         145.2263  142.0945  164.2246 N.2     1  UNL1       -0.2482
     10 C         145.2142  140.9966  163.2026 C.2     1  UNL1        0.0907
     11 C         144.2186  141.2374  162.0242 C.2     1  UNL1       -0.0139
     12 C         143.7083  142.5591  162.5170 C.3     1  UNL1        0.0820
     13 C         143.6875  140.6574  160.7469 C.3     1  UNL1        0.0486
     14 C         142.6460  141.3990  159.9624 C.3     1  UNL1        0.1029
     15 N         142.1149  140.8189  158.6851 N.am    1  UNL1       -0.2607
     16 C         142.6252  139.4973  158.1923 C.2     1  UNL1        0.3079
     17 O         143.6666  138.7557  158.9768 O.2     1  UNL1       -0.2522
     18 N         142.0940  138.9173  156.9151 N.am    1  UNL1       -0.2681
     19 C         141.0734  141.5605  157.9007 C.3     1  UNL1        0.1086
     20 H         141.4105  139.4041  156.4002 H       1  UNL1        0.1564
     21 C         142.6043  137.5957  156.4222 C.ar    1  UNL1        0.0516
     22 C         141.7592  136.3647  156.5656 C.ar    1  UNL1        0.0147
     23 C         142.2695  135.0431  156.0728 C.ar    1  UNL1        0.0013
     24 C         143.6248  134.9524  155.4366 C.ar    1  UNL1        0.0001
     25 C         144.4699  136.1834  155.2932 C.ar    1  UNL1        0.0013
     26 C         143.9597  137.5050  155.7860 C.ar    1  UNL1        0.0147
     27 N         139.9357  144.6300  156.5765 N.am    1  UNL1       -0.2792
     28 C         139.5217  143.6238  157.6091 C.2     1  UNL1        0.2309
     29 O         138.0662  143.3593  157.8571 O.2     1  UNL1       -0.2745
     30 C         138.8607  146.8710  155.8200 C.3     1  UNL1        0.0233
     31 C         138.8943  145.3717  155.7920 C.3     1  UNL1        0.0935
     32 C         141.3912  144.8946  156.3284 C.3     1  UNL1        0.0935
     33 C         142.1264  145.8931  157.1723 C.3     1  UNL1        0.0233
@<TRIPOS>BOND
     1    30    31    1
     2    31    27    1
     3    27    32    1
     4    32    33    1
     5    27    28   am
     6    28    29    2
     7     1    28    1
     8     1     2    1
     9     2     3    2
    10     3     4    1
    11     4     5    2
    12     5     6    1
    13     6     7    2
    14     7     8    1
    15     8     9    2
    16     9    10    1
    17    10    11    2
    18    11    12    1
    19    11    13    1
    20    14    13    1
    21    14    15    1
    22    15    16   am
    23    16    17    2
    24    16    18   am
    25    18    21    1
    26    21    22   ar
    27    22    23   ar
    28    23    24   ar
    29    24    25   ar
    30    25    26   ar
    31    15    19    1
    32    19     1    1
    33    14     3    1
    34    26    21   ar
    35    12     4    1
    36    12     8    1
    37    18    20    1
@<TRIPOS>MOLECULE
*****
 33 37 0 0 0
SMALL
GASTEIGER

@<TRIPOS>ATOM
      1 C         143.8315  142.6950  160.7190 C.3     1  UNL1        0.1182
      2 C         142.4209  142.1948  160.6197 C.2     1  UNL1       -0.0186
      3 C         141.8885  141.7080  159.3046 C.2     1  UNL1       -0.0110
      4 C         140.4778  141.2077  159.2054 C.2     1  UNL1       -0.0158
      5 C         139.5996  141.1942  160.4213 C.2     1  UNL1       -0.0038
      6 C         138.1890  140.6940  160.3220 C.2     1  UNL1        0.0009
      7 C         137.6566  140.2072  159.0069 C.2     1  UNL1        0.0153
      8 C         138.5348  140.2207  157.7910 C.2     1  UNL1        0.0665
      9 N         138.4368  139.8495  156.3409 N.2     1  UNL1       -0.2482
     10 C         139.7583  140.1461  155.6962 C.2     1  UNL1        0.0907
     11 C         140.8237  140.7345  156.6742 C.2     1  UNL1       -0.0139
     12 C         139.9454  140.7210  157.8902 C.3     1  UNL1        0.0820
     13 C         142.2343  141.2348  156.7735 C.3     1  UNL1        0.0486
     14 C         142.7667  141.7215  158.0886 C.3     1  UNL1        0.1029
     15 N         144.1774  142.2218  158.1878 N.am    1  UNL1       -0.2607
     16 C         145.0556  142.2353  156.9719 C.2     1  UNL1        0.3079
     17 O         144.5232  141.7485  155.6568 O.2     1  UNL1       -0.2522
     18 N         146.4662  142.7355  157.0712 N.am    1  UNL1       -0.2681
     19 C         144.7098  142.7085  159.5030 C.3     1  UNL1        0.1086
     20 H         146.8156  143.0550  157.9344 H       1  UNL1        0.1564
     21 C         147.3445  142.7491  155.8552 C.ar    1  UNL1        0.0516
     22 C         148.5194  141.8206  155.7683 C.ar    1  UNL1        0.0147
     23 C         149.3977  141.8341  154.5525 C.ar    1  UNL1        0.0013
     24 C         149.1011  142.7760  153.4235 C.ar    1  UNL1        0.0001
     25 C         147.9262  143.7045  153.5103 C.ar    1  UNL1        0.0013
     26 C         147.0479  143.6910  154.7262 C.ar    1  UNL1        0.0147
     27 N         144.8627  142.1987  163.0514 N.am    1  UNL1       -0.2792
     28 C         144.3639  143.1818  162.0341 C.2     1  UNL1        0.2309
     29 O         144.3974  144.6515  162.3320 O.2     1  UNL1       -0.2745
     30 C         144.4571  143.2453  165.3945 C.3     1  UNL1        0.0233
     31 C         145.3951  142.6855  164.3666 C.3     1  UNL1        0.0935
     32 C         144.8292  140.7290  162.7535 C.3     1  UNL1        0.0935
     33 C         143.8710  139.8371  163.4858 C.3     1  UNL1        0.0233
@<TRIPOS>BOND
     1    30    31    1
     2    31    27    1
     3    27    32    1
     4    32    33    1
     5    27    28   am
     6    28    29    2
     7     1    28    1
     8     1     2    1
     9     2     3    2
    10     3     4    1
    11     4     5    2
    12     5     6    1
    13     6     7    2
    14     7     8    1
    15     8     9    2
    16     9    10    1
    17    10    11    2
    18    11    12    1
    19    11    13    1
    20    14    13    1
    21    14    15    1
    22    15    16   am
    23    16    17    2
    24    16    18   am
    25    18    21    1
    26    21    22   ar
    27    22    23   ar
    28    23    24   ar
    29    24    25   ar
    30    25    26   ar
    31    15    19    1
    32    19     1    1
    33    14     3    1
    34    26    21   ar
    35    12     4    1
    36    12     8    1
    37    18    20    1
@<TRIPOS>MOLECULE
*****
 33 37 0 0 0
SMALL
GASTEIGER

@<TRIPOS>ATOM
      1 C         142.0416  138.2513  157.5853 C.3     1  UNL1        0.1182
      2 C         142.0410  138.1534  159.0821 C.2     1  UNL1       -0.0186
      3 C         142.8159  139.1446  159.8989 C.2     1  UNL1       -0.0110
      4 C         142.8153  139.0467  161.3957 C.2     1  UNL1       -0.0158
      5 C         142.0399  137.9575  162.0757 C.2     1  UNL1       -0.0038
      6 C         142.0394  137.8596  163.5725 C.2     1  UNL1        0.0009
      7 C         142.8142  138.8508  164.3892 C.2     1  UNL1        0.0153
      8 C         143.5896  139.9400  163.7092 C.2     1  UNL1        0.0665
      9 N         144.4649  141.0945  164.0977 N.2     1  UNL1       -0.2482
     10 C         144.9129  141.7799  162.8408 C.2     1  UNL1        0.0907
     11 C         144.3656  141.1271  161.5324 C.2     1  UNL1       -0.0139
     12 C         143.5901  140.0379  162.2125 C.3     1  UNL1        0.0820
     13 C         144.3661  141.2250  160.0356 C.3     1  UNL1        0.0486
     14 C         143.5913  140.2338  159.2188 C.3     1  UNL1        0.1029
     15 N         143.5918  140.3317  157.7220 N.am    1  UNL1       -0.2607
     16 C         144.3672  141.4209  157.0420 C.2     1  UNL1        0.3079
     17 O         145.1421  142.4121  157.8587 O.2     1  UNL1       -0.2522
     18 N         144.3678  141.5188  155.5452 N.am    1  UNL1       -0.2681
     19 C         142.8170  139.3405  156.9052 C.3     1  UNL1        0.1086
     20 H         143.8592  140.8682  155.0092 H       1  UNL1        0.1564
     21 C         145.1432  142.6080  154.8651 C.ar    1  UNL1        0.0516
     22 C         146.6427  142.5953  154.9002 C.ar    1  UNL1        0.0147
     23 C         147.4181  143.6844  154.2202 C.ar    1  UNL1        0.0013
     24 C         146.6940  144.7862  153.5050 C.ar    1  UNL1        0.0001
     25 C         145.1945  144.7990  153.4699 C.ar    1  UNL1        0.0013
     26 C         144.4191  143.7099  154.1499 C.ar    1  UNL1        0.0147
     27 N         141.9606  136.0672  156.1805 N.am    1  UNL1       -0.2792
     28 C         141.2667  137.2601  156.7686 C.2     1  UNL1        0.2309
     29 O         139.7981  137.4616  156.5399 O.2     1  UNL1       -0.2745
     30 C         141.5779  133.6282  155.3715 C.3     1  UNL1        0.0233
     31 C         141.1858  135.0760  155.3638 C.3     1  UNL1        0.0935
     32 C         143.4293  135.8657  156.4093 C.3     1  UNL1        0.0935
     33 C         144.4200  136.3497  155.3924 C.3     1  UNL1        0.0233
@<TRIPOS>BOND
     1    30    31    1
     2    31    27    1
     3    27    32    1
     4    32    33    1
     5    27    28   am
     6    28    29    2
     7     1    28    1
     8     1     2    1
     9     2     3    2
    10     3     4    1
    11     4     5    2
    12     5     6    1
    13     6     7    2
    14     7     8    1
    15     8     9    2
    16     9    10    1
    17    10    11    2
    18    11    12    1
    19    11    13    1
    20    14    13    1
    21    14    15    1
    22    15    16   am
    23    16    17    2
    24    16    18   am
    25    18    21    1
    26    21    22   ar
    27    22    23   ar
    28    23    24   ar
    29    24    25   ar
    30    25    26   ar
    31    15    19    1
    32    19     1    1
    33    14     3    1
    34    26    21   ar
    35    12     4    1
    36    12     8    1
    37    18    20    1
@<TRIPOS>MOLECULE
*****
 33 37 0 0 0
SMALL
GASTEIGER

@<TRIPOS>ATOM
      1 C         142.9255  138.5167  156.5457 C.3     1  UNL1        0.1182
      2 C         142.9820  139.8741  155.9100 C.2     1  UNL1       -0.0186
      3 C         142.5275  141.0808  156.6764 C.2     1  UNL1       -0.0110
      4 C         142.5841  142.4382  156.0405 C.2     1  UNL1       -0.0158
      5 C         143.0951  142.5889  154.6384 C.2     1  UNL1       -0.0038
      6 C         143.1517  143.9463  154.0026 C.2     1  UNL1        0.0009
      7 C         142.6972  145.1530  154.7690 C.2     1  UNL1        0.0153
      8 C         142.1862  145.0023  156.1712 C.2     1  UNL1        0.0665
      9 N         141.6527  145.8809  157.2636 N.2     1  UNL1       -0.2482
     10 C         141.3250  145.0101  158.4403 C.2     1  UNL1        0.0907
     11 C         141.6186  143.4941  158.2092 C.2     1  UNL1       -0.0139
     12 C         142.1296  143.6449  156.8069 C.3     1  UNL1        0.0820
     13 C         141.5620  142.1367  158.8449 C.3     1  UNL1        0.0486
     14 C         142.0165  140.9300  158.0785 C.3     1  UNL1        0.1029
     15 N         141.9600  139.5726  158.7144 N.am    1  UNL1       -0.2607
     16 C         141.4489  139.4219  160.1165 C.2     1  UNL1        0.3079
     17 O         140.9945  140.6286  160.8829 O.2     1  UNL1       -0.2522
     18 N         141.3924  138.0645  160.7523 N.am    1  UNL1       -0.2681
     19 C         142.4144  138.3659  157.9480 C.3     1  UNL1        0.1086
     20 H         141.6907  137.2725  160.2493 H       1  UNL1        0.1564
     21 C         140.8813  137.9137  162.1545 C.ar    1  UNL1        0.0516
     22 C         141.8472  137.7847  163.2949 C.ar    1  UNL1        0.0147
     23 C         141.3362  137.6339  164.6971 C.ar    1  UNL1        0.0013
     24 C         139.8594  137.6122  164.9589 C.ar    1  UNL1        0.0001
     25 C         138.8936  137.7413  163.8185 C.ar    1  UNL1        0.0013
     26 C         139.4046  137.8920  162.4163 C.ar    1  UNL1        0.0147
     27 N         142.3710  136.3373  155.2446 N.am    1  UNL1       -0.2792
     28 C         143.3800  137.3100  155.7793 C.2     1  UNL1        0.2309
     29 O         144.8433  137.0760  155.5477 O.2     1  UNL1       -0.2745
     30 C         142.7979  133.7774  155.1246 C.3     1  UNL1        0.0233
     31 C         142.8255  135.1306  154.4782 C.3     1  UNL1        0.0935
     32 C         140.9076  136.5713  155.4762 C.3     1  UNL1        0.0935
     33 C         140.0757  137.2272  154.4144 C.3     1  UNL1        0.0233
@<TRIPOS>BOND
     1    30    31    1
     2    31    27    1
     3    27    32    1
     4    32    33    1
     5    27    28   am
     6    28    29    2
     7     1    28    1
     8     1     2    1
     9     2     3    2
    10     3     4    1
    11     4     5    2
    12     5     6    1
    13     6     7    2
    14     7     8    1
    15     8     9    2
    16     9    10    1
    17    10    11    2
    18    11    12    1
    19    11    13    1
    20    14    13    1
    21    14    15    1
    22    15    16   am
    23    16    17    2
    24    16    18   am
    25    18    21    1
    26    21    22   ar
    27    22    23   ar
    28    23    24   ar
    29    24    25   ar
    30    25    26   ar
    31    15    19    1
    32    19     1    1
    33    14     3    1
    34    26    21   ar
    35    12     4    1
    36    12     8    1
    37    18    20    1
@<TRIPOS>MOLECULE
*****
 33 37 0 0 0
SMALL
GASTEIGER

@<TRIPOS>ATOM
      1 C         139.1897  141.6237  157.6763 C.3     1  UNL1        0.1182
      2 C         138.8250  142.1054  159.0492 C.2     1  UNL1       -0.0186
      3 C         139.8580  142.7705  159.9097 C.2     1  UNL1       -0.0110
      4 C         139.4932  143.2522  161.2826 C.2     1  UNL1       -0.0158
      5 C         138.0955  143.0688  161.7951 C.2     1  UNL1       -0.0038
      6 C         137.7308  143.5504  163.1680 C.2     1  UNL1        0.0009
      7 C         138.7638  144.2156  164.0284 C.2     1  UNL1        0.0153
      8 C         140.1616  144.3990  163.5160 C.2     1  UNL1        0.0665
      9 N         141.4585  144.9784  163.9980 N.2     1  UNL1       -0.2482
     10 C         142.4761  144.8062  162.9095 C.2     1  UNL1        0.0907
     11 C         141.9241  144.1008  161.6306 C.2     1  UNL1       -0.0139
     12 C         140.5263  143.9173  162.1431 C.3     1  UNL1        0.0820
     13 C         142.2888  143.6191  160.2577 C.3     1  UNL1        0.0486
     14 C         141.2557  142.9539  159.3972 C.3     1  UNL1        0.1029
     15 N         141.6205  142.4722  158.0243 N.am    1  UNL1       -0.2607
     16 C         143.0183  142.6557  157.5118 C.2     1  UNL1        0.3079
     17 O         144.0513  143.3208  158.3723 O.2     1  UNL1       -0.2522
     18 N         143.3830  142.1740  156.1389 N.am    1  UNL1       -0.2681
     19 C         140.5875  141.8071  157.1638 C.3     1  UNL1        0.1086
     20 H         142.7049  141.7375  155.5742 H       1  UNL1        0.1564
     21 C         144.7808  142.3574  155.6264 C.ar    1  UNL1        0.0516
     22 C         145.0498  143.3235  154.5109 C.ar    1  UNL1        0.0147
     23 C         146.4475  143.5069  153.9984 C.ar    1  UNL1        0.0013
     24 C         147.5762  142.7243  154.6014 C.ar    1  UNL1        0.0001
     25 C         147.3071  141.7583  155.7169 C.ar    1  UNL1        0.0013
     26 C         145.9094  141.5748  156.2294 C.ar    1  UNL1        0.0147
     27 N         137.1950  141.7904  156.0198 N.am    1  UNL1       -0.2792
     28 C         138.1566  140.9586  156.8158 C.2     1  UNL1        0.2309
     29 O         138.0851  139.4617  156.7512 O.2     1  UNL1       -0.2745
     30 C         134.7965  140.8407  155.7111 C.3     1  UNL1        0.0233
     31 C         136.1620  141.1253  155.1593 C.3     1  UNL1        0.0935
     32 C         137.2665  143.2873  156.0844 C.3     1  UNL1        0.0935
     33 C         137.0075  144.1042  154.8533 C.3     1  UNL1        0.0233
@<TRIPOS>BOND
     1    30    31    1
     2    31    27    1
     3    27    32    1
     4    32    33    1
     5    27    28   am
     6    28    29    2
     7     1    28    1
     8     1     2    1
     9     2     3    2
    10     3     4    1
    11     4     5    2
    12     5     6    1
    13     6     7    2
    14     7     8    1
    15     8     9    2
    16     9    10    1
    17    10    11    2
    18    11    12    1
    19    11    13    1
    20    14    13    1
    21    14    15    1
    22    15    16   am
    23    16    17    2
    24    16    18   am
    25    18    21    1
    26    21    22   ar
    27    22    23   ar
    28    23    24   ar
    29    24    25   ar
    30    25    26   ar
    31    15    19    1
    32    19     1    1
    33    14     3    1
    34    26    21   ar
    35    12     4    1
    36    12     8    1
    37    18    20    1
@<TRIPOS>MOLECULE
*****
 33 37 0 0 0
SMALL
GASTEIGER

@<TRIPOS>ATOM
      1 C         139.2139  142.6075  157.7433 C.3     1  UNL1        0.1182
      2 C         138.8386  142.8233  159.1794 C.2     1  UNL1       -0.0186
      3 C         139.1504  141.7714  160.2023 C.2     1  UNL1       -0.0110
      4 C         138.7751  141.9873  161.6385 C.2     1  UNL1       -0.0158
      5 C         138.0881  143.2550  162.0518 C.2     1  UNL1       -0.0038
      6 C         137.7128  143.4708  163.4879 C.2     1  UNL1        0.0009
      7 C         138.0246  142.4189  164.5108 C.2     1  UNL1        0.0153
      8 C         138.7116  141.1511  164.0975 C.2     1  UNL1        0.0665
      9 N         139.1975  139.8860  164.7404 N.2     1  UNL1       -0.2482
     10 C         139.8108  139.0295  163.6726 C.2     1  UNL1        0.0907
     11 C         139.7738  139.6675  162.2480 C.2     1  UNL1       -0.0139
     12 C         139.0868  140.9353  162.6614 C.3     1  UNL1        0.0820
     13 C         140.1491  139.4517  160.8119 C.3     1  UNL1        0.0486
     14 C         139.8373  140.5037  159.7890 C.3     1  UNL1        0.1029
     15 N         140.2126  140.2878  158.3528 N.am    1  UNL1       -0.2607
     16 C         140.8996  139.0201  157.9395 C.2     1  UNL1        0.3079
     17 O         141.2114  137.9681  158.9624 O.2     1  UNL1       -0.2522
     18 N         141.2749  138.8043  156.5033 N.am    1  UNL1       -0.2681
     19 C         139.9009  141.3397  157.3299 C.3     1  UNL1        0.1086
     20 H         141.0703  139.4947  155.8320 H       1  UNL1        0.1564
     21 C         141.9619  137.5365  156.0900 C.ar    1  UNL1        0.0516
     22 C         143.4580  137.4920  155.9913 C.ar    1  UNL1        0.0147
     23 C         144.1450  136.2243  155.5780 C.ar    1  UNL1        0.0013
     24 C         143.3359  135.0011  155.2634 C.ar    1  UNL1        0.0001
     25 C         141.8399  135.0455  155.3620 C.ar    1  UNL1        0.0013
     26 C         141.1528  136.3132  155.7754 C.ar    1  UNL1        0.0147
     27 N         139.9205  144.7105  156.3911 N.am    1  UNL1       -0.2792
     28 C         138.9021  143.6595  156.7204 C.2     1  UNL1        0.2309
     29 O         137.5722  143.6604  156.0268 O.2     1  UNL1       -0.2745
     30 C         138.8542  146.9960  155.7669 C.3     1  UNL1        0.0233
     31 C         139.6088  145.7625  155.3682 C.3     1  UNL1        0.0935
     32 C         141.2505  144.7096  157.0847 C.3     1  UNL1        0.0935
     33 C         141.4485  145.5252  158.3279 C.3     1  UNL1        0.0233
@<TRIPOS>BOND
     1    30    31    1
     2    31    27    1
     3    27    32    1
     4    32    33    1
     5    27    28   am
     6    28    29    2
     7     1    28    1
     8     1     2    1
     9     2     3    2
    10     3     4    1
    11     4     5    2
    12     5     6    1
    13     6     7    2
    14     7     8    1
    15     8     9    2
    16     9    10    1
    17    10    11    2
    18    11    12    1
    19    11    13    1
    20    14    13    1
    21    14    15    1
    22    15    16   am
    23    16    17    2
    24    16    18   am
    25    18    21    1
    26    21    22   ar
    27    22    23   ar
    28    23    24   ar
    29    24    25   ar
    30    25    26   ar
    31    15    19    1
    32    19     1    1
    33    14     3    1
    34    26    21   ar
    35    12     4    1
    36    12     8    1
    37    18    20    1
@<TRIPOS>MOLECULE
*****
 33 37 0 0 0
SMALL
GASTEIGER

@<TRIPOS>ATOM
      1 C         139.3432  139.6727  157.2772 C.3     1  UNL1        0.1182
      2 C         139.5737  138.6824  156.1744 C.2     1  UNL1       -0.0186
      3 C         140.6604  137.6565  156.3026 C.2     1  UNL1       -0.0110
      4 C         140.8909  136.6662  155.1997 C.2     1  UNL1       -0.0158
      5 C         140.0346  136.7019  153.9687 C.2     1  UNL1       -0.0038
      6 C         140.2651  135.7117  152.8658 C.2     1  UNL1        0.0009
      7 C         141.3518  134.6857  152.9941 C.2     1  UNL1        0.0153
      8 C         142.2081  134.6501  154.2251 C.2     1  UNL1        0.0665
      9 N         143.3533  133.8447  154.7634 N.2     1  UNL1       -0.2482
     10 C         143.7147  134.3958  156.1109 C.2     1  UNL1        0.0907
     11 C         142.8339  135.6047  156.5590 C.2     1  UNL1       -0.0139
     12 C         141.9776  135.6403  155.3279 C.3     1  UNL1        0.0820
     13 C         142.6035  136.5949  157.6618 C.3     1  UNL1        0.0486
     14 C         141.5167  137.6208  157.5336 C.3     1  UNL1        0.1029
     15 N         141.2862  138.6111  158.6365 N.am    1  UNL1       -0.2607
     16 C         142.1425  138.5755  159.8675 C.2     1  UNL1        0.3079
     17 O         143.2293  137.5495  159.9957 O.2     1  UNL1       -0.2522
     18 N         141.9121  139.5657  160.9703 N.am    1  UNL1       -0.2681
     19 C         140.1995  139.6370  158.5083 C.3     1  UNL1        0.1086
     20 H         141.1988  140.2390  160.8862 H       1  UNL1        0.1564
     21 C         142.7684  139.5301  162.2014 C.ar    1  UNL1        0.0516
     22 C         144.0580  140.2952  162.2404 C.ar    1  UNL1        0.0147
     23 C         144.9143  140.2595  163.4714 C.ar    1  UNL1        0.0013
     24 C         144.4809  139.4589  164.6635 C.ar    1  UNL1        0.0001
     25 C         143.1913  138.6938  164.6245 C.ar    1  UNL1        0.0013
     26 C         142.3350  138.7294  163.3935 C.ar    1  UNL1        0.0147
     27 N         138.5535  142.0326  156.5306 N.am    1  UNL1       -0.2792
     28 C         138.2564  140.6986  157.1490 C.2     1  UNL1        0.2309
     29 O         136.8726  140.3906  157.6391 O.2     1  UNL1       -0.2745
     30 C         136.5187  143.0058  155.2412 C.3     1  UNL1        0.0233
     31 C         137.4667  143.0585  156.4024 C.3     1  UNL1        0.0935
     32 C         139.9373  142.3406  156.0406 C.3     1  UNL1        0.0935
     33 C         140.2512  142.2530  154.5764 C.3     1  UNL1        0.0233
@<TRIPOS>BOND
     1    30    31    1
     2    31    27    1
     3    27    32    1
     4    32    33    1
     5    27    28   am
     6    28    29    2
     7     1    28    1
     8     1     2    1
     9     2     3    2
    10     3     4    1
    11     4     5    2
    12     5     6    1
    13     6     7    2
    14     7     8    1
    15     8     9    2
    16     9    10    1
    17    10    11    2
    18    11    12    1
    19    11    13    1
    20    14    13    1
    21    14    15    1
    22    15    16   am
    23    16    17    2
    24    16    18   am
    25    18    21    1
    26    21    22   ar
    27    22    23   ar
    28    23    24   ar
    29    24    25   ar
    30    25    26   ar
    31    15    19    1
    32    19     1    1
    33    14     3    1
    34    26    21   ar
    35    12     4    1
    36    12     8    1
    37    18    20    1
@<TRIPOS>MOLECULE
*****
 33 37 0 0 0
SMALL
GASTEIGER

@<TRIPOS>ATOM
      1 C         142.2737  139.6438  160.9648 C.3     1  UNL1        0.1182
      2 C         141.9249  140.8471  160.1400 C.2     1  UNL1       -0.0186
      3 C         141.3677  142.0732  160.8004 C.2     1  UNL1       -0.0110
      4 C         141.0190  143.2766  159.9755 C.2     1  UNL1       -0.0158
      5 C         141.2274  143.2538  158.4903 C.2     1  UNL1       -0.0038
      6 C         140.8786  144.4571  157.6655 C.2     1  UNL1        0.0009
      7 C         140.3214  145.6832  158.3259 C.2     1  UNL1        0.0153
      8 C         140.1130  145.7060  159.8112 C.2     1  UNL1        0.0665
      9 N         139.6081  146.6615  160.8514 N.2     1  UNL1       -0.2482
     10 C         139.6891  145.9799  162.1851 C.2     1  UNL1        0.0907
     11 C         140.2533  144.5254  162.1213 C.2     1  UNL1       -0.0139
     12 C         140.4618  144.5027  160.6360 C.3     1  UNL1        0.0820
     13 C         140.6021  143.3221  162.9461 C.3     1  UNL1        0.0486
     14 C         141.1593  142.0960  162.2857 C.3     1  UNL1        0.1029
     15 N         141.5081  140.8927  163.1106 N.am    1  UNL1       -0.2607
     16 C         141.2996  140.9155  164.5958 C.2     1  UNL1        0.3079
     17 O         140.7424  142.1416  165.2562 O.2     1  UNL1       -0.2522
     18 N         141.6484  139.7122  165.4206 N.am    1  UNL1       -0.2681
     19 C         142.0653  139.6665  162.4501 C.3     1  UNL1        0.1086
     20 H         142.0141  138.9074  164.9871 H       1  UNL1        0.1564
     21 C         141.4400  139.7349  166.9059 C.ar    1  UNL1        0.0516
     22 C         140.0774  140.0134  167.4679 C.ar    1  UNL1        0.0147
     23 C         139.8689  140.0362  168.9531 C.ar    1  UNL1        0.0013
     24 C         141.0230  139.7804  169.8764 C.ar    1  UNL1        0.0001
     25 C         142.3856  139.5020  169.3145 C.ar    1  UNL1        0.0013
     26 C         142.5941  139.4792  167.8292 C.ar    1  UNL1        0.0147
     27 N         142.2999  137.9761  158.9728 N.am    1  UNL1       -0.2792
     28 C         142.8309  138.4177  160.3044 C.2     1  UNL1        0.2309
     29 O         143.9191  137.6332  160.9755 O.2     1  UNL1       -0.2745
     30 C         142.8638  136.6413  156.8163 C.3     1  UNL1        0.0233
     31 C         142.8571  136.7500  158.3123 C.3     1  UNL1        0.0935
     32 C         141.2117  138.7606  158.3017 C.3     1  UNL1        0.0935
     33 C         139.7743  138.4045  158.5399 C.3     1  UNL1        0.0233
@<TRIPOS>BOND
     1    30    31    1
     2    31    27    1
     3    27    32    1
     4    32    33    1
     5    27    28   am
     6    28    29    2
     7     1    28    1
     8     1     2    1
     9     2     3    2
    10     3     4    1
    11     4     5    2
    12     5     6    1
    13     6     7    2
    14     7     8    1
    15     8     9    2
    16     9    10    1
    17    10    11    2
    18    11    12    1
    19    11    13    1
    20    14    13    1
    21    14    15    1
    22    15    16   am
    23    16    17    2
    24    16    18   am
    25    18    21    1
    26    21    22   ar
    27    22    23   ar
    28    23    24   ar
    29    24    25   ar
    30    25    26   ar
    31    15    19    1
    32    19     1    1
    33    14     3    1
    34    26    21   ar
    35    12     4    1
    36    12     8    1
    37    18    20    1
