@<TRIPOS>MOLECULE
*****
 22 25 0 0 0
SMALL
GASTEIGER

@<TRIPOS>ATOM
      1 N         142.3333  139.4091  165.2582 N.ar    1  UNL1       -0.3206
      2 C         141.7890  139.8672  166.5788 C.ar    1  UNL1        0.0762
      3 C         142.3735  141.2157  166.8784 C.ar    1  UNL1        0.0188
      4 C         143.2790  141.5911  165.7430 C.ar    1  UNL1        0.0203
      5 C         144.1229  142.8054  165.4915 C.ar    1  UNL1        0.0222
      6 C         144.9419  142.9031  164.2387 C.ar    1  UNL1        0.0990
      7 N         144.9171  141.7866  163.2374 N.ar    1  UNL1       -0.2408
      8 C         144.0731  140.5723  163.4888 C.ar    1  UNL1        0.1160
      9 C         143.2541  140.4746  164.7416 C.ar    1  UNL1        0.0796
     10 C         142.1005  142.0436  168.0991 C.ar    1  UNL1        0.0046
     11 C         140.7664  142.7073  168.2722 C.ar    1  UNL1        0.0207
     12 C         140.4934  143.5352  169.4929 C.ar    1  UNL1        0.0989
     13 N         141.5543  143.6993  170.5405 N.ar    1  UNL1       -0.2423
     14 C         142.8882  143.0356  170.3674 C.ar    1  UNL1        0.0989
     15 C         143.1613  142.2077  169.1467 C.ar    1  UNL1        0.0207
     16 C         142.0129  138.1131  164.5743 C.3     1  UNL1        0.1328
     17 C         139.0105  138.0194  161.2236 C.ar    1  UNL1       -0.0000
     18 C         138.5635  137.7946  162.6377 C.ar    1  UNL1       -0.0003
     19 C         139.5643  137.8258  163.7546 C.ar    1  UNL1       -0.0024
     20 C         141.0121  138.0819  163.4574 C.ar    1  UNL1        0.0004
     21 C         141.4590  138.3067  162.0433 C.ar    1  UNL1       -0.0024
     22 C         140.4583  138.2754  160.9264 C.ar    1  UNL1       -0.0003
@<TRIPOS>BOND
     1    17    18   ar
     2    18    19   ar
     3    19    20   ar
     4    20    16    1
     5    16     1    1
     6     1     2   ar
     7     2     3   ar
     8     3    10    1
     9    10    11   ar
    10    11    12   ar
    11    12    13   ar
    12    13    14   ar
    13    14    15   ar
    14     3     4   ar
    15     4     5   ar
    16     5     6   ar
    17     6     7   ar
    18     7     8   ar
    19     8     9   ar
    20    20    21   ar
    21    21    22   ar
    22    22    17   ar
    23     9     1   ar
    24    15    10   ar
    25     9     4   ar
@<TRIPOS>MOLECULE
*****
 22 25 0 0 0
SMALL
GASTEIGER

@<TRIPOS>ATOM
      1 N         142.5369  139.3284  165.8761 N.ar    1  UNL1       -0.3206
      2 C         142.7094  140.0808  167.1622 C.ar    1  UNL1        0.0762
      3 C         141.3552  140.2526  167.7839 C.ar    1  UNL1        0.0188
      4 C         140.3457  139.6063  166.8821 C.ar    1  UNL1        0.0203
      5 C         138.8558  139.4642  166.9822 C.ar    1  UNL1        0.0222
      6 C         138.0963  138.7508  165.9032 C.ar    1  UNL1        0.0990
      7 N         138.8267  138.1796  164.7241 N.ar    1  UNL1       -0.2408
      8 C         140.3165  138.3217  164.6240 C.ar    1  UNL1        0.1160
      9 C         141.0760  139.0351  165.7029 C.ar    1  UNL1        0.0796
     10 C         141.0618  140.9485  169.0799 C.ar    1  UNL1        0.0046
     11 C         141.5372  140.3563  170.3736 C.ar    1  UNL1        0.0207
     12 C         141.2439  141.0522  171.6696 C.ar    1  UNL1        0.0989
     13 N         140.4753  142.3403  171.6721 N.ar    1  UNL1       -0.2423
     14 C         139.9999  142.9324  170.3785 C.ar    1  UNL1        0.0989
     15 C         140.2932  142.2365  169.0825 C.ar    1  UNL1        0.0207
     16 C         143.6328  138.9377  164.9293 C.3     1  UNL1        0.1328
     17 C         145.0482  141.8478  161.8023 C.ar    1  UNL1       -0.0000
     18 C         145.6076  141.9100  163.1927 C.ar    1  UNL1       -0.0003
     19 C         145.1358  140.9400  164.2351 C.ar    1  UNL1       -0.0024
     20 C         144.1046  139.9078  163.8869 C.ar    1  UNL1        0.0004
     21 C         143.5453  139.8456  162.4965 C.ar    1  UNL1       -0.0024
     22 C         144.0171  140.8156  161.4542 C.ar    1  UNL1       -0.0003
@<TRIPOS>BOND
     1    17    18   ar
     2    18    19   ar
     3    19    20   ar
     4    20    16    1
     5    16     1    1
     6     1     2   ar
     7     2     3   ar
     8     3    10    1
     9    10    11   ar
    10    11    12   ar
    11    12    13   ar
    12    13    14   ar
    13    14    15   ar
    14     3     4   ar
    15     4     5   ar
    16     5     6   ar
    17     6     7   ar
    18     7     8   ar
    19     8     9   ar
    20    20    21   ar
    21    21    22   ar
    22    22    17   ar
    23     9     1   ar
    24    15    10   ar
    25     9     4   ar
@<TRIPOS>MOLECULE
*****
 22 25 0 0 0
SMALL
GASTEIGER

@<TRIPOS>ATOM
      1 N         138.4780  141.9165  164.1378 N.ar    1  UNL1       -0.3206
      2 C         139.1714  142.0088  165.4647 C.ar    1  UNL1        0.0762
      3 C         139.6281  140.6318  165.8458 C.ar    1  UNL1        0.0188
      4 C         139.2170  139.6885  164.7544 C.ar    1  UNL1        0.0203
      5 C         139.3981  138.2091  164.5854 C.ar    1  UNL1        0.0222
      6 C         138.8684  137.5237  163.3608 C.ar    1  UNL1        0.0990
      7 N         138.1576  138.3177  162.3052 N.ar    1  UNL1       -0.2408
      8 C         137.9765  139.7971  162.4742 C.ar    1  UNL1        0.1160
      9 C         138.5062  140.4825  163.6988 C.ar    1  UNL1        0.0796
     10 C         140.3663  140.2628  167.0984 C.ar    1  UNL1        0.0046
     11 C         141.8011  139.8317  167.0239 C.ar    1  UNL1        0.0207
     12 C         142.5393  139.4627  168.2765 C.ar    1  UNL1        0.0989
     13 N         141.8428  139.5249  169.6035 N.ar    1  UNL1       -0.2423
     14 C         140.4080  139.9560  169.6779 C.ar    1  UNL1        0.0989
     15 C         139.6698  140.3250  168.4253 C.ar    1  UNL1        0.0207
     16 C         137.8642  143.0579  163.3825 C.3     1  UNL1        0.1328
     17 C         140.3638  145.4606  160.5138 C.ar    1  UNL1       -0.0000
     18 C         139.8976  146.0762  161.7997 C.ar    1  UNL1       -0.0003
     19 C         139.0644  145.2754  162.7559 C.ar    1  UNL1       -0.0024
     20 C         138.6975  143.8589  162.4262 C.ar    1  UNL1        0.0004
     21 C         139.1637  143.2432  161.1403 C.ar    1  UNL1       -0.0024
     22 C         139.9969  144.0441  160.1840 C.ar    1  UNL1       -0.0003
@<TRIPOS>BOND
     1    17    18   ar
     2    18    19   ar
     3    19    20   ar
     4    20    16    1
     5    16     1    1
     6     1     2   ar
     7     2     3   ar
     8     3    10    1
     9    10    11   ar
    10    11    12   ar
    11    12    13   ar
    12    13    14   ar
    13    14    15   ar
    14     3     4   ar
    15     4     5   ar
    16     5     6   ar
    17     6     7   ar
    18     7     8   ar
    19     8     9   ar
    20    20    21   ar
    21    21    22   ar
    22    22    17   ar
    23     9     1   ar
    24    15    10   ar
    25     9     4   ar
@<TRIPOS>MOLECULE
*****
 22 25 0 0 0
SMALL
GASTEIGER

@<TRIPOS>ATOM
      1 N         142.8400  142.2718  164.8875 N.ar    1  UNL1       -0.3206
      2 C         142.5576  141.7571  166.2678 C.ar    1  UNL1        0.0762
      3 C         141.2374  142.3155  166.7095 C.ar    1  UNL1        0.0188
      4 C         140.7038  143.1753  165.6022 C.ar    1  UNL1        0.0203
      5 C         139.4440  143.9792  165.4739 C.ar    1  UNL1        0.0222
      6 C         139.1748  144.7562  164.2194 C.ar    1  UNL1        0.0990
      7 N         140.1653  144.7292  163.0933 N.ar    1  UNL1       -0.2408
      8 C         141.4251  143.9253  163.2217 C.ar    1  UNL1        0.1160
      9 C         141.6944  143.1483  164.4761 C.ar    1  UNL1        0.0796
     10 C         140.5681  142.0591  168.0272 C.ar    1  UNL1        0.0046
     11 C         139.9182  140.7334  168.2930 C.ar    1  UNL1        0.0207
     12 C         139.2489  140.4770  169.6107 C.ar    1  UNL1        0.0989
     13 N         139.2295  141.5462  170.6626 N.ar    1  UNL1       -0.2423
     14 C         139.8794  142.8717  170.3969 C.ar    1  UNL1        0.0989
     15 C         140.5487  143.1281  169.0792 C.ar    1  UNL1        0.0207
     16 C         144.0549  141.9641  164.0632 C.3     1  UNL1        0.1328
     17 C         143.8335  138.8798  160.7939 C.ar    1  UNL1       -0.0000
     18 C         143.8785  138.4487  162.2299 C.ar    1  UNL1       -0.0003
     19 C         143.9523  139.4767  163.3196 C.ar    1  UNL1       -0.0024
     20 C         143.9811  140.9359  162.9734 C.ar    1  UNL1        0.0004
     21 C         143.9361  141.3670  161.5374 C.ar    1  UNL1       -0.0024
     22 C         143.8623  140.3390  160.4476 C.ar    1  UNL1       -0.0003
@<TRIPOS>BOND
     1    17    18   ar
     2    18    19   ar
     3    19    20   ar
     4    20    16    1
     5    16     1    1
     6     1     2   ar
     7     2     3   ar
     8     3    10    1
     9    10    11   ar
    10    11    12   ar
    11    12    13   ar
    12    13    14   ar
    13    14    15   ar
    14     3     4   ar
    15     4     5   ar
    16     5     6   ar
    17     6     7   ar
    18     7     8   ar
    19     8     9   ar
    20    20    21   ar
    21    21    22   ar
    22    22    17   ar
    23     9     1   ar
    24    15    10   ar
    25     9     4   ar
@<TRIPOS>MOLECULE
*****
 22 25 0 0 0
SMALL
GASTEIGER

@<TRIPOS>ATOM
      1 N         141.3180  141.9067  164.8855 N.ar    1  UNL1       -0.3206
      2 C         141.5598  142.4089  166.2781 C.ar    1  UNL1        0.0762
      3 C         140.7126  141.6008  167.2158 C.ar    1  UNL1        0.0188
      4 C         139.9473  140.5992  166.4028 C.ar    1  UNL1        0.0203
      5 C         138.9580  139.5395  166.7878 C.ar    1  UNL1        0.0222
      6 C         138.3429  138.6688  165.7326 C.ar    1  UNL1        0.0990
      7 N         138.7171  138.8578  164.2924 N.ar    1  UNL1       -0.2408
      8 C         139.7063  139.9176  163.9073 C.ar    1  UNL1        0.1160
      9 C         140.3214  140.7883  164.9625 C.ar    1  UNL1        0.0796
     10 C         140.6430  141.7654  168.7051 C.ar    1  UNL1        0.0046
     11 C         140.1786  143.0639  169.2953 C.ar    1  UNL1        0.0207
     12 C         140.1090  143.2285  170.7847 C.ar    1  UNL1        0.0989
     13 N         140.5038  142.0947  171.6838 N.ar    1  UNL1       -0.2423
     14 C         140.9681  140.7962  171.0936 C.ar    1  UNL1        0.0989
     15 C         141.0378  140.6316  169.6043 C.ar    1  UNL1        0.0207
     16 C         141.9601  142.4309  163.6353 C.3     1  UNL1        0.1328
     17 C         140.0079  145.7678  161.3322 C.ar    1  UNL1       -0.0000
     18 C         139.4962  145.3956  162.6922 C.ar    1  UNL1       -0.0003
     19 C         140.1468  144.2834  163.4599 C.ar    1  UNL1       -0.0024
     20 C         141.3093  143.5432  162.8676 C.ar    1  UNL1        0.0004
     21 C         141.8211  143.9154  161.5076 C.ar    1  UNL1       -0.0024
     22 C         141.1704  145.0277  160.7399 C.ar    1  UNL1       -0.0003
@<TRIPOS>BOND
     1    17    18   ar
     2    18    19   ar
     3    19    20   ar
     4    20    16    1
     5    16     1    1
     6     1     2   ar
     7     2     3   ar
     8     3    10    1
     9    10    11   ar
    10    11    12   ar
    11    12    13   ar
    12    13    14   ar
    13    14    15   ar
    14     3     4   ar
    15     4     5   ar
    16     5     6   ar
    17     6     7   ar
    18     7     8   ar
    19     8     9   ar
    20    20    21   ar
    21    21    22   ar
    22    22    17   ar
    23     9     1   ar
    24    15    10   ar
    25     9     4   ar
@<TRIPOS>MOLECULE
*****
 22 25 0 0 0
SMALL
GASTEIGER

@<TRIPOS>ATOM
      1 N         140.4594  141.2844  165.4144 N.ar    1  UNL1       -0.3206
      2 C         141.3461  141.0742  164.2229 C.ar    1  UNL1        0.0762
      3 C         141.1144  139.6829  163.7125 C.ar    1  UNL1        0.0188
      4 C         140.0845  139.0332  164.5884 C.ar    1  UNL1        0.0203
      5 C         139.4630  137.6683  164.5642 C.ar    1  UNL1        0.0222
      6 C         138.4367  137.2932  165.5918 C.ar    1  UNL1        0.0990
      7 N         138.0319  138.2830  166.6436 N.ar    1  UNL1       -0.2408
      8 C         138.6534  139.6480  166.6679 C.ar    1  UNL1        0.1160
      9 C         139.6797  140.0231  165.6403 C.ar    1  UNL1        0.0796
     10 C         141.7934  139.0519  162.5331 C.ar    1  UNL1        0.0046
     11 C         143.1877  138.5156  162.6688 C.ar    1  UNL1        0.0207
     12 C         143.8667  137.8846  161.4895 C.ar    1  UNL1        0.0989
     13 N         143.1514  137.7900  160.1744 N.ar    1  UNL1       -0.2423
     14 C         141.7572  138.3263  160.0387 C.ar    1  UNL1        0.0989
     15 C         141.0782  138.9573  161.2181 C.ar    1  UNL1        0.0207
     16 C         140.3684  142.5363  166.2357 C.3     1  UNL1        0.1328
     17 C         142.5913  142.8341  170.1371 C.ar    1  UNL1       -0.0000
     18 C         141.1697  143.3038  170.0461 C.ar    1  UNL1       -0.0003
     19 C         140.4287  143.2046  168.7457 C.ar    1  UNL1       -0.0024
     20 C         141.1094  142.6355  167.5363 C.ar    1  UNL1        0.0004
     21 C         142.5310  142.1658  167.6272 C.ar    1  UNL1       -0.0024
     22 C         143.2720  142.2650  168.9276 C.ar    1  UNL1       -0.0003
@<TRIPOS>BOND
     1    17    18   ar
     2    18    19   ar
     3    19    20   ar
     4    20    16    1
     5    16     1    1
     6     1     2   ar
     7     2     3   ar
     8     3    10    1
     9    10    11   ar
    10    11    12   ar
    11    12    13   ar
    12    13    14   ar
    13    14    15   ar
    14     3     4   ar
    15     4     5   ar
    16     5     6   ar
    17     6     7   ar
    18     7     8   ar
    19     8     9   ar
    20    20    21   ar
    21    21    22   ar
    22    22    17   ar
    23     9     1   ar
    24    15    10   ar
    25     9     4   ar
@<TRIPOS>MOLECULE
*****
 22 25 0 0 0
SMALL
GASTEIGER

@<TRIPOS>ATOM
      1 N         141.6845  141.7380  165.3480 N.ar    1  UNL1       -0.3206
      2 C         140.7556  142.6585  164.6133 C.ar    1  UNL1        0.0762
      3 C         141.4249  143.0692  163.3353 C.ar    1  UNL1        0.0188
      4 C         142.7675  142.4025  163.2801 C.ar    1  UNL1        0.0203
      5 C         143.8647  142.4383  162.2579 C.ar    1  UNL1        0.0222
      6 C         145.1222  141.6514  162.4797 C.ar    1  UNL1        0.0990
      7 N         145.2827  140.8287  163.7236 N.ar    1  UNL1       -0.2408
      8 C         144.1855  140.7929  164.7458 C.ar    1  UNL1        0.1160
      9 C         142.9280  141.5798  164.5241 C.ar    1  UNL1        0.0796
     10 C         140.8522  143.9856  162.2950 C.ar    1  UNL1        0.0046
     11 C         140.7468  143.5296  160.8698 C.ar    1  UNL1        0.0207
     12 C         140.1741  144.4461  159.8296 C.ar    1  UNL1        0.0989
     13 N         139.7069  145.8185  160.2144 N.ar    1  UNL1       -0.2423
     14 C         139.8123  146.2744  161.6395 C.ar    1  UNL1        0.0989
     15 C         140.3850  145.3580  162.6798 C.ar    1  UNL1        0.0207
     16 C         141.4170  141.0896  166.6739 C.3     1  UNL1        0.1328
     17 C         142.5079  143.2231  170.4829 C.ar    1  UNL1       -0.0000
     18 C         141.1405  143.3966  169.8912 C.ar    1  UNL1       -0.0003
     19 C         140.7769  142.6855  168.6216 C.ar    1  UNL1       -0.0024
     20 C         141.7806  141.8008  167.9436 C.ar    1  UNL1        0.0004
     21 C         143.1480  141.6272  168.5353 C.ar    1  UNL1       -0.0024
     22 C         143.5117  142.3383  169.8049 C.ar    1  UNL1       -0.0003
@<TRIPOS>BOND
     1    17    18   ar
     2    18    19   ar
     3    19    20   ar
     4    20    16    1
     5    16     1    1
     6     1     2   ar
     7     2     3   ar
     8     3    10    1
     9    10    11   ar
    10    11    12   ar
    11    12    13   ar
    12    13    14   ar
    13    14    15   ar
    14     3     4   ar
    15     4     5   ar
    16     5     6   ar
    17     6     7   ar
    18     7     8   ar
    19     8     9   ar
    20    20    21   ar
    21    21    22   ar
    22    22    17   ar
    23     9     1   ar
    24    15    10   ar
    25     9     4   ar
@<TRIPOS>MOLECULE
*****
 22 25 0 0 0
SMALL
GASTEIGER

@<TRIPOS>ATOM
      1 N         140.4256  140.4761  164.5274 N.ar    1  UNL1       -0.3206
      2 C         141.0378  140.5395  165.8953 C.ar    1  UNL1        0.0762
      3 C         140.7809  141.9072  166.4551 C.ar    1  UNL1        0.0188
      4 C         140.0099  142.6891  165.4332 C.ar    1  UNL1        0.0203
      5 C         139.4795  144.0921  165.4337 C.ar    1  UNL1        0.0222
      6 C         138.7294  144.6107  164.2428 C.ar    1  UNL1        0.0990
      7 N         138.5097  143.7262  163.0513 N.ar    1  UNL1       -0.2408
      8 C         139.0402  142.3231  163.0509 C.ar    1  UNL1        0.1160
      9 C         139.7903  141.8046  164.2418 C.ar    1  UNL1        0.0796
     10 C         141.2183  142.4056  167.8006 C.ar    1  UNL1        0.0046
     11 C         140.2648  143.1833  168.6586 C.ar    1  UNL1        0.0207
     12 C         140.7021  143.6816  170.0041 C.ar    1  UNL1        0.0989
     13 N         142.0929  143.4024  170.4916 N.ar    1  UNL1       -0.2423
     14 C         143.0464  142.6247  169.6336 C.ar    1  UNL1        0.0989
     15 C         142.6090  142.1263  168.2881 C.ar    1  UNL1        0.0207
     16 C         140.4451  139.2921  163.6067 C.3     1  UNL1        0.1328
     17 C         144.0018  138.5692  160.9463 C.ar    1  UNL1       -0.0000
     18 C         142.7788  137.7111  160.8130 C.ar    1  UNL1       -0.0003
     19 C         141.5932  137.9520  161.6997 C.ar    1  UNL1       -0.0024
     20 C         141.6307  139.0511  162.7198 C.ar    1  UNL1        0.0004
     21 C         142.8538  139.9092  162.8532 C.ar    1  UNL1       -0.0024
     22 C         144.0394  139.6683  161.9664 C.ar    1  UNL1       -0.0003
@<TRIPOS>BOND
     1    17    18   ar
     2    18    19   ar
     3    19    20   ar
     4    20    16    1
     5    16     1    1
     6     1     2   ar
     7     2     3   ar
     8     3    10    1
     9    10    11   ar
    10    11    12   ar
    11    12    13   ar
    12    13    14   ar
    13    14    15   ar
    14     3     4   ar
    15     4     5   ar
    16     5     6   ar
    17     6     7   ar
    18     7     8   ar
    19     8     9   ar
    20    20    21   ar
    21    21    22   ar
    22    22    17   ar
    23     9     1   ar
    24    15    10   ar
    25     9     4   ar
@<TRIPOS>MOLECULE
*****
 22 25 0 0 0
SMALL
GASTEIGER

@<TRIPOS>ATOM
      1 N         141.4836  140.5092  164.5766 N.ar    1  UNL1       -0.3206
      2 C         140.5561  141.4688  163.8919 C.ar    1  UNL1        0.0762
      3 C         141.3863  142.4068  163.0667 C.ar    1  UNL1        0.0188
      4 C         142.8268  142.0269  163.2415 C.ar    1  UNL1        0.0203
      5 C         144.0915  142.5974  162.6714 C.ar    1  UNL1        0.0222
      6 C         145.4164  141.9950  163.0346 C.ar    1  UNL1        0.0990
      7 N         145.4765  140.8222  163.9678 N.ar    1  UNL1       -0.2408
      8 C         144.2118  140.2517  164.5378 C.ar    1  UNL1        0.1160
      9 C         142.8869  140.8541  164.1747 C.ar    1  UNL1        0.0796
     10 C         140.8671  143.5279  162.2161 C.ar    1  UNL1        0.0046
     11 C         140.6100  144.8745  162.8252 C.ar    1  UNL1        0.0207
     12 C         140.0909  145.9956  161.9746 C.ar    1  UNL1        0.0989
     13 N         139.8288  145.7703  160.5149 N.ar    1  UNL1       -0.2423
     14 C         140.0858  144.4238  159.9059 C.ar    1  UNL1        0.0989
     15 C         140.6050  143.3027  160.7565 C.ar    1  UNL1        0.0207
     16 C         141.0787  139.3994  165.5011 C.3     1  UNL1        0.1328
     17 C         141.1786  140.0322  169.9553 C.ar    1  UNL1       -0.0000
     18 C         142.4379  139.6829  169.2189 C.ar    1  UNL1       -0.0003
     19 C         142.4047  139.4719  167.7342 C.ar    1  UNL1       -0.0024
     20 C         141.1121  139.6103  166.9859 C.ar    1  UNL1        0.0004
     21 C         139.8528  139.9597  167.7222 C.ar    1  UNL1       -0.0024
     22 C         139.8860  140.1706  169.2069 C.ar    1  UNL1       -0.0003
@<TRIPOS>BOND
     1    17    18   ar
     2    18    19   ar
     3    19    20   ar
     4    20    16    1
     5    16     1    1
     6     1     2   ar
     7     2     3   ar
     8     3    10    1
     9    10    11   ar
    10    11    12   ar
    11    12    13   ar
    12    13    14   ar
    13    14    15   ar
    14     3     4   ar
    15     4     5   ar
    16     5     6   ar
    17     6     7   ar
    18     7     8   ar
    19     8     9   ar
    20    20    21   ar
    21    21    22   ar
    22    22    17   ar
    23     9     1   ar
    24    15    10   ar
    25     9     4   ar
