@<TRIPOS>MOLECULE
*****
 33 36 0 0 0
SMALL
GASTEIGER

@<TRIPOS>ATOM
      1 N         140.5184  141.6591  167.8041 N.ar    1  UNL1       -0.2399
      2 N         140.4168  141.8790  166.3238 N.ar    1  UNL1       -0.1681
      3 C         139.5809  140.7748  165.7474 C.ar    1  UNL1        0.1079
      4 C         139.1659  139.8725  166.8715 C.ar    1  UNL1        0.1031
      5 C         139.7453  140.4190  168.1426 C.ar    1  UNL1        0.1280
      6 N         139.5805  139.8291  169.5119 N.pl3   1  UNL1       -0.3427
      7 H         139.0513  139.0078  169.6336 H       1  UNL1        0.1437
      8 H         140.0016  140.2630  170.2888 H       1  UNL1        0.1437
      9 C         139.2229  140.6031  164.3009 C.ar    1  UNL1        0.0196
     10 C         137.8991  141.0923  163.7927 C.ar    1  UNL1        0.0016
     11 C         137.5412  140.9206  162.3463 C.ar    1  UNL1        0.0001
     12 C         138.5070  140.2597  161.4079 C.ar    1  UNL1        0.0030
     13 C         138.1490  140.0881  159.9614 C.ar    1  UNL1        0.0369
     14 C         139.1148  139.4272  159.0231 C.ar    1  UNL1        0.1384
     15 C         140.4386  138.9380  159.5313 C.ar    1  UNL1        0.0369
     16 C         140.7966  139.1097  160.9778 C.ar    1  UNL1        0.0031
     17 C         139.8307  139.7706  161.9161 C.ar    1  UNL1        0.0002
     18 C         140.1887  139.9423  163.3626 C.ar    1  UNL1        0.0016
     19 O         138.7568  139.2555  157.5766 O.3     1  UNL1       -0.4792
     20 C         139.5919  138.3729  156.6969 C.3     1  UNL1        0.1661
     21 C         140.8732  138.1087  155.9631 C.3     1  UNL1        0.0472
     22 C         139.7569  137.1084  155.9072 C.3     1  UNL1        0.0472
     23 C         138.3200  138.6401  166.7466 C.2     1  UNL1        0.2470
     24 N         138.5294  137.7001  165.5967 N.am    1  UNL1       -0.3252
     25 O         137.2646  138.3478  167.7716 O.2     1  UNL1       -0.2702
     26 H         139.2221  137.8919  164.9239 H       1  UNL1        0.1453
     27 H         137.9742  136.8912  165.5147 H       1  UNL1        0.1453
     28 C         142.7498  142.3914  168.9154 C.3     1  UNL1        0.0265
     29 C         141.2625  142.5269  168.7753 C.3     1  UNL1        0.1091
     30 C         140.5192  143.5302  169.6065 C.3     1  UNL1        0.0561
     31 C         139.7628  143.0838  170.8224 C.3     1  UNL1        0.1392
     32 O         140.3922  142.1218  171.7860 O.3     1  UNL1       -0.3819
     33 H         140.5197  141.2646  171.3503 H       1  UNL1        0.2104
@<TRIPOS>BOND
     1    28    29    1
     2    29    30    1
     3    30    31    1
     4    31    32    1
     5    29     1    1
     6     1     2   ar
     7     2     3   ar
     8     3     9    1
     9     9    10   ar
    10    10    11   ar
    11    11    12   ar
    12    12    13   ar
    13    13    14   ar
    14    14    19    1
    15    19    20    1
    16    20    21    1
    17    21    22    1
    18    14    15   ar
    19    15    16   ar
    20    16    17   ar
    21    17    18   ar
    22     3     4   ar
    23     4    23    1
    24    23    24   am
    25    23    25    2
    26     4     5   ar
    27     5     6    1
    28     5     1   ar
    29    18     9   ar
    30    17    12   ar
    31    22    20    1
    32    32    33    1
    33    24    26    1
    34    24    27    1
    35     6     7    1
    36     6     8    1
@<TRIPOS>MOLECULE
*****
 33 36 0 0 0
SMALL
GASTEIGER

@<TRIPOS>ATOM
      1 N         140.4945  141.7104  168.1881 N.ar    1  UNL1       -0.2399
      2 N         140.3606  142.0064  166.7237 N.ar    1  UNL1       -0.1681
      3 C         139.5077  140.9356  166.1105 C.ar    1  UNL1        0.1079
      4 C         139.1145  139.9778  167.1958 C.ar    1  UNL1        0.1031
      5 C         139.7243  140.4566  168.4799 C.ar    1  UNL1        0.1280
      6 N         139.5879  139.7975  169.8204 N.pl3   1  UNL1       -0.3427
      7 H         139.0584  138.9726  169.9117 H       1  UNL1        0.1437
      8 H         140.0280  140.1898  170.6089 H       1  UNL1        0.1437
      9 C         139.1167  140.8395  164.6655 C.ar    1  UNL1        0.0196
     10 C         137.8147  141.4212  164.2005 C.ar    1  UNL1        0.0016
     11 C         137.4238  141.3250  162.7556 C.ar    1  UNL1        0.0001
     12 C         138.3349  140.6472  161.7756 C.ar    1  UNL1        0.0030
     13 C         137.9439  140.5511  160.3306 C.ar    1  UNL1        0.0369
     14 C         138.8551  139.8733  159.3506 C.ar    1  UNL1        0.1384
     15 C         140.1572  139.2916  159.8156 C.ar    1  UNL1        0.0369
     16 C         140.5481  139.3877  161.2605 C.ar    1  UNL1        0.0031
     17 C         139.6370  140.0655  162.2405 C.ar    1  UNL1        0.0002
     18 C         140.0279  140.1616  163.6855 C.ar    1  UNL1        0.0016
     19 O         138.4641  139.7772  157.9056 O.3     1  UNL1       -0.4792
     20 C         137.6605  140.8736  157.2715 C.3     1  UNL1        0.1661
     21 C         136.5306  141.3113  156.3874 C.3     1  UNL1        0.0472
     22 C         137.3985  142.3349  157.0574 C.3     1  UNL1        0.0472
     23 C         138.2612  138.7558  167.0269 C.2     1  UNL1        0.2470
     24 N         138.4154  137.8961  165.8075 N.am    1  UNL1       -0.3252
     25 O         137.2537  138.3934  168.0775 O.2     1  UNL1       -0.2702
     26 H         139.0766  138.1338  165.1179 H       1  UNL1        0.1453
     27 H         137.8553  137.0940  165.6966 H       1  UNL1        0.1453
     28 C         140.6347  143.7358  169.8093 C.3     1  UNL1        0.0265
     29 C         141.2634  142.5251  169.1856 C.3     1  UNL1        0.1091
     30 C         142.6611  142.1290  169.5594 C.3     1  UNL1        0.0561
     31 C         142.8960  140.9043  170.3930 C.3     1  UNL1        0.1392
     32 O         142.1479  140.7180  171.6797 O.3     1  UNL1       -0.3819
     33 H         142.4196  141.4003  172.3134 H       1  UNL1        0.2104
@<TRIPOS>BOND
     1    28    29    1
     2    29    30    1
     3    30    31    1
     4    31    32    1
     5    29     1    1
     6     1     2   ar
     7     2     3   ar
     8     3     9    1
     9     9    10   ar
    10    10    11   ar
    11    11    12   ar
    12    12    13   ar
    13    13    14   ar
    14    14    19    1
    15    19    20    1
    16    20    21    1
    17    21    22    1
    18    14    15   ar
    19    15    16   ar
    20    16    17   ar
    21    17    18   ar
    22     3     4   ar
    23     4    23    1
    24    23    24   am
    25    23    25    2
    26     4     5   ar
    27     5     6    1
    28     5     1   ar
    29    18     9   ar
    30    17    12   ar
    31    22    20    1
    32    32    33    1
    33    24    26    1
    34    24    27    1
    35     6     7    1
    36     6     8    1
@<TRIPOS>MOLECULE
*****
 33 36 0 0 0
SMALL
GASTEIGER

@<TRIPOS>ATOM
      1 N         140.7100  141.5271  168.2441 N.ar    1  UNL1       -0.2399
      2 N         141.3177  141.6522  166.8785 N.ar    1  UNL1       -0.1681
      3 C         140.6629  140.6405  165.9853 C.ar    1  UNL1        0.1079
      4 C         139.6505  139.8902  166.7989 C.ar    1  UNL1        0.1031
      5 C         139.6796  140.4381  168.1949 C.ar    1  UNL1        0.1280
      6 N         138.8278  139.9779  169.3406 N.pl3   1  UNL1       -0.3427
      7 H         138.1761  139.2519  169.2089 H       1  UNL1        0.1437
      8 H         138.9204  140.4019  170.2243 H       1  UNL1        0.1437
      9 C         140.9672  140.4182  164.5333 C.ar    1  UNL1        0.0196
     10 C         140.0698  140.9997  163.4814 C.ar    1  UNL1        0.0016
     11 C         140.3740  140.7774  162.0295 C.ar    1  UNL1        0.0001
     12 C         141.5757  139.9736  161.6296 C.ar    1  UNL1        0.0030
     13 C         141.8800  139.7513  160.1776 C.ar    1  UNL1        0.0369
     14 C         143.0816  138.9476  159.7777 C.ar    1  UNL1        0.1384
     15 C         143.9791  138.3661  160.8297 C.ar    1  UNL1        0.0369
     16 C         143.6748  138.5884  162.2815 C.ar    1  UNL1        0.0031
     17 C         142.4731  139.3922  162.6815 C.ar    1  UNL1        0.0002
     18 C         142.1688  139.6145  164.1333 C.ar    1  UNL1        0.0016
     19 O         143.3859  138.7253  158.3258 O.3     1  UNL1       -0.4792
     20 C         142.7179  137.6068  157.5822 C.3     1  UNL1        0.1661
     21 C         141.5282  137.0633  156.8479 C.3     1  UNL1        0.0472
     22 C         142.7507  136.2132  157.0285 C.3     1  UNL1        0.0472
     23 C         138.7645  138.7859  166.3035 C.2     1  UNL1        0.2470
     24 N         139.2583  137.8463  165.2437 N.am    1  UNL1       -0.3252
     25 O         137.3845  138.6211  166.8680 O.2     1  UNL1       -0.2702
     26 H         140.1640  137.9544  164.8732 H       1  UNL1        0.1453
     27 H         138.6768  137.1215  164.9186 H       1  UNL1        0.1453
     28 C         140.3541  143.6377  169.7168 C.3     1  UNL1        0.0265
     29 C         141.0695  142.3471  169.4476 C.3     1  UNL1        0.1091
     30 C         142.1445  141.8763  170.3819 C.3     1  UNL1        0.0561
     31 C         141.9071  140.6816  171.2572 C.3     1  UNL1        0.1392
     32 O         140.5698  140.4815  171.9065 O.3     1  UNL1       -0.3819
     33 H         140.4146  141.1889  172.5518 H       1  UNL1        0.2104
@<TRIPOS>BOND
     1    28    29    1
     2    29    30    1
     3    30    31    1
     4    31    32    1
     5    29     1    1
     6     1     2   ar
     7     2     3   ar
     8     3     9    1
     9     9    10   ar
    10    10    11   ar
    11    11    12   ar
    12    12    13   ar
    13    13    14   ar
    14    14    19    1
    15    19    20    1
    16    20    21    1
    17    21    22    1
    18    14    15   ar
    19    15    16   ar
    20    16    17   ar
    21    17    18   ar
    22     3     4   ar
    23     4    23    1
    24    23    24   am
    25    23    25    2
    26     4     5   ar
    27     5     6    1
    28     5     1   ar
    29    18     9   ar
    30    17    12   ar
    31    22    20    1
    32    32    33    1
    33    24    26    1
    34    24    27    1
    35     6     7    1
    36     6     8    1
@<TRIPOS>MOLECULE
*****
 33 36 0 0 0
SMALL
GASTEIGER

@<TRIPOS>ATOM
      1 N         139.9121  140.5954  167.5183 N.ar    1  UNL1       -0.2399
      2 N         140.4774  141.7221  166.7053 N.ar    1  UNL1       -0.1681
      3 C         139.8669  141.6580  165.3366 C.ar    1  UNL1        0.1079
      4 C         138.9243  140.4916  165.3037 C.ar    1  UNL1        0.1031
      5 C         138.9522  139.8349  166.6520 C.ar    1  UNL1        0.1280
      6 N         138.1594  138.6293  167.0620 N.pl3   1  UNL1       -0.3427
      7 H         137.5522  138.1973  166.4186 H       1  UNL1        0.1437
      8 H         138.2462  138.2702  167.9746 H       1  UNL1        0.1437
      9 C         140.1495  142.5956  164.2004 C.ar    1  UNL1        0.0196
     10 C         139.6452  144.0074  164.2499 C.ar    1  UNL1        0.0016
     11 C         139.9278  144.9450  163.1137 C.ar    1  UNL1        0.0001
     12 C         140.7147  144.4708  161.9279 C.ar    1  UNL1        0.0030
     13 C         140.9973  145.4085  160.7917 C.ar    1  UNL1        0.0369
     14 C         141.7842  144.9343  159.6060 C.ar    1  UNL1        0.1384
     15 C         142.2885  143.5224  159.5565 C.ar    1  UNL1        0.0369
     16 C         142.0059  142.5848  160.6927 C.ar    1  UNL1        0.0031
     17 C         141.2190  143.0590  161.8784 C.ar    1  UNL1        0.0002
     18 C         140.9364  142.1214  163.0146 C.ar    1  UNL1        0.0016
     19 O         142.0668  145.8718  158.4698 O.3     1  UNL1       -0.4792
     20 C         141.1381  145.9257  157.2930 C.3     1  UNL1        0.1661
     21 C         140.9138  145.8633  155.8112 C.3     1  UNL1        0.0472
     22 C         139.7538  146.0812  156.7368 C.3     1  UNL1        0.0472
     23 C         138.0988  140.0581  164.1287 C.2     1  UNL1        0.2470
     24 N         137.0424  140.9691  163.5772 N.am    1  UNL1       -0.3252
     25 O         138.3296  138.7134  163.5053 O.2     1  UNL1       -0.2702
     26 H         136.8909  141.8516  163.9864 H       1  UNL1        0.1453
     27 H         136.5006  140.6844  162.8061 H       1  UNL1        0.1453
     28 C         139.2379  140.5369  170.0267 C.3     1  UNL1        0.0265
     29 C         140.2476  140.2838  168.9466 C.3     1  UNL1        0.1091
     30 C         141.5929  139.7192  169.2950 C.3     1  UNL1        0.0561
     31 C         142.4643  140.4198  170.2948 C.3     1  UNL1        0.1392
     32 O         143.4372  139.6338  171.1229 O.3     1  UNL1       -0.3819
     33 H         142.9509  139.0418  171.7179 H       1  UNL1        0.2104
@<TRIPOS>BOND
     1    28    29    1
     2    29    30    1
     3    30    31    1
     4    31    32    1
     5    29     1    1
     6     1     2   ar
     7     2     3   ar
     8     3     9    1
     9     9    10   ar
    10    10    11   ar
    11    11    12   ar
    12    12    13   ar
    13    13    14   ar
    14    14    19    1
    15    19    20    1
    16    20    21    1
    17    21    22    1
    18    14    15   ar
    19    15    16   ar
    20    16    17   ar
    21    17    18   ar
    22     3     4   ar
    23     4    23    1
    24    23    24   am
    25    23    25    2
    26     4     5   ar
    27     5     6    1
    28     5     1   ar
    29    18     9   ar
    30    17    12   ar
    31    22    20    1
    32    32    33    1
    33    24    26    1
    34    24    27    1
    35     6     7    1
    36     6     8    1
@<TRIPOS>MOLECULE
*****
 33 36 0 0 0
SMALL
GASTEIGER

@<TRIPOS>ATOM
      1 N         140.4749  141.7753  168.8039 N.ar    1  UNL1       -0.2399
      2 N         141.0853  142.5942  167.7053 N.ar    1  UNL1       -0.1681
      3 C         140.6533  142.0067  166.3945 C.ar    1  UNL1        0.1079
      4 C         139.7760  140.8247  166.6829 C.ar    1  UNL1        0.1031
      5 C         139.6657  140.6817  168.1720 C.ar    1  UNL1        0.1280
      6 N         138.8835  139.6298  168.9012 N.pl3   1  UNL1       -0.3427
      7 H         138.3813  138.9507  168.3955 H       1  UNL1        0.1437
      8 H         138.8724  139.6186  169.8856 H       1  UNL1        0.1437
      9 C         141.0322  142.5124  165.0340 C.ar    1  UNL1        0.0196
     10 C         142.2237  141.9390  164.3258 C.ar    1  UNL1        0.0016
     11 C         142.6025  142.4447  162.9654 C.ar    1  UNL1        0.0001
     12 C         141.7899  143.5238  162.3132 C.ar    1  UNL1        0.0030
     13 C         142.1688  144.0295  160.9528 C.ar    1  UNL1        0.0369
     14 C         141.3561  145.1085  160.3006 C.ar    1  UNL1        0.1384
     15 C         140.1646  145.6818  161.0089 C.ar    1  UNL1        0.0369
     16 C         139.7858  145.1761  162.3693 C.ar    1  UNL1        0.0031
     17 C         140.5984  144.0971  163.0215 C.ar    1  UNL1        0.0002
     18 C         140.2196  143.5914  164.3819 C.ar    1  UNL1        0.0016
     19 O         141.7350  145.6142  158.9402 O.3     1  UNL1       -0.4792
     20 C         140.7286  145.6007  157.8280 C.3     1  UNL1        0.1661
     21 C         139.9654  146.3233  156.7577 C.3     1  UNL1        0.0472
     22 C         139.7487  144.8546  156.9718 C.3     1  UNL1        0.0472
     23 C         139.1234  139.9409  165.6617 C.2     1  UNL1        0.2470
     24 N         137.8978  140.4112  164.9360 N.am    1  UNL1       -0.3252
     25 O         139.6966  138.5865  165.3660 O.2     1  UNL1       -0.2702
     26 H         137.5216  141.3001  165.1300 H       1  UNL1        0.1453
     27 H         137.4696  139.8310  164.2657 H       1  UNL1        0.1453
     28 C         139.6763  142.8876  171.0119 C.3     1  UNL1        0.0265
     29 C         140.6440  142.0091  170.2759 C.3     1  UNL1        0.1091
     30 C         141.7809  141.3642  171.0119 C.3     1  UNL1        0.0561
     31 C         142.7775  140.5265  170.2669 C.3     1  UNL1        0.1392
     32 O         143.3451  139.2927  170.9038 O.3     1  UNL1       -0.3819
     33 H         143.8843  139.5432  171.6702 H       1  UNL1        0.2104
@<TRIPOS>BOND
     1    28    29    1
     2    29    30    1
     3    30    31    1
     4    31    32    1
     5    29     1    1
     6     1     2   ar
     7     2     3   ar
     8     3     9    1
     9     9    10   ar
    10    10    11   ar
    11    11    12   ar
    12    12    13   ar
    13    13    14   ar
    14    14    19    1
    15    19    20    1
    16    20    21    1
    17    21    22    1
    18    14    15   ar
    19    15    16   ar
    20    16    17   ar
    21    17    18   ar
    22     3     4   ar
    23     4    23    1
    24    23    24   am
    25    23    25    2
    26     4     5   ar
    27     5     6    1
    28     5     1   ar
    29    18     9   ar
    30    17    12   ar
    31    22    20    1
    32    32    33    1
    33    24    26    1
    34    24    27    1
    35     6     7    1
    36     6     8    1
@<TRIPOS>MOLECULE
*****
 33 36 0 0 0
SMALL
GASTEIGER

@<TRIPOS>ATOM
      1 N         140.6606  141.2180  168.5913 N.ar    1  UNL1       -0.2399
      2 N         141.3431  141.4418  167.2745 N.ar    1  UNL1       -0.1681
      3 C         140.6815  140.5633  166.2543 C.ar    1  UNL1        0.1079
      4 C         139.5902  139.7966  166.9407 C.ar    1  UNL1        0.1031
      5 C         139.5772  140.2012  168.3850 C.ar    1  UNL1        0.1280
      6 N         138.6447  139.6805  169.4382 N.pl3   1  UNL1       -0.3427
      7 H         137.9626  139.0103  169.2040 H       1  UNL1        0.1437
      8 H         138.7147  140.0089  170.3637 H       1  UNL1        0.1437
      9 C         141.0471  140.4683  164.8026 C.ar    1  UNL1        0.0196
     10 C         140.2573  141.2286  163.7789 C.ar    1  UNL1        0.0016
     11 C         140.6230  141.1336  162.3273 C.ar    1  UNL1        0.0001
     12 C         141.7784  140.2781  161.8994 C.ar    1  UNL1        0.0030
     13 C         142.1441  140.1831  160.4477 C.ar    1  UNL1        0.0369
     14 C         143.2995  139.3276  160.0198 C.ar    1  UNL1        0.1384
     15 C         144.0894  138.5672  161.0435 C.ar    1  UNL1        0.0369
     16 C         143.7237  138.6623  162.4951 C.ar    1  UNL1        0.0031
     17 C         142.5682  139.5177  162.9231 C.ar    1  UNL1        0.0002
     18 C         142.2026  139.6128  164.3747 C.ar    1  UNL1        0.0016
     19 O         143.6652  139.2326  158.5682 O.3     1  UNL1       -0.4792
     20 C         144.2724  140.4125  157.8688 C.3     1  UNL1        0.1661
     21 C         144.3710  141.8962  157.6714 C.3     1  UNL1        0.0472
     22 C         145.2256  140.9725  156.8550 C.3     1  UNL1        0.0472
     23 C         138.6728  138.8003  166.2960 C.2     1  UNL1        0.2470
     24 N         139.1342  138.0190  165.1016 N.am    1  UNL1       -0.3252
     25 O         137.2938  138.5852  166.8458 O.2     1  UNL1       -0.2702
     26 H         140.0393  138.1602  164.7408 H       1  UNL1        0.1453
     27 H         138.5321  137.3651  164.6785 H       1  UNL1        0.1453
     28 C         140.4910  143.2742  170.1704 C.3     1  UNL1        0.0265
     29 C         141.0016  141.8925  169.8870 C.3     1  UNL1        0.1091
     30 C         141.8533  141.1854  170.8992 C.3     1  UNL1        0.0561
     31 C         142.7656  140.0757  170.4677 C.3     1  UNL1        0.1392
     32 O         143.8600  139.6069  171.3801 O.3     1  UNL1       -0.3819
     33 H         144.5110  140.3166  171.4955 H       1  UNL1        0.2104
@<TRIPOS>BOND
     1    28    29    1
     2    29    30    1
     3    30    31    1
     4    31    32    1
     5    29     1    1
     6     1     2   ar
     7     2     3   ar
     8     3     9    1
     9     9    10   ar
    10    10    11   ar
    11    11    12   ar
    12    12    13   ar
    13    13    14   ar
    14    14    19    1
    15    19    20    1
    16    20    21    1
    17    21    22    1
    18    14    15   ar
    19    15    16   ar
    20    16    17   ar
    21    17    18   ar
    22     3     4   ar
    23     4    23    1
    24    23    24   am
    25    23    25    2
    26     4     5   ar
    27     5     6    1
    28     5     1   ar
    29    18     9   ar
    30    17    12   ar
    31    22    20    1
    32    32    33    1
    33    24    26    1
    34    24    27    1
    35     6     7    1
    36     6     8    1
@<TRIPOS>MOLECULE
*****
 33 36 0 0 0
SMALL
GASTEIGER

@<TRIPOS>ATOM
      1 N         141.3688  140.1192  168.6997 N.ar    1  UNL1       -0.2399
      2 N         142.1035  139.7951  167.4328 N.ar    1  UNL1       -0.1681
      3 C         141.0884  139.4525  166.3829 C.ar    1  UNL1        0.1079
      4 C         139.7263  139.5649  167.0009 C.ar    1  UNL1        0.1031
      5 C         139.8995  139.9769  168.4328 C.ar    1  UNL1        0.1280
      6 N         138.7971  140.2063  169.4238 N.pl3   1  UNL1       -0.3427
      7 H         137.8584  140.0869  169.1522 H       1  UNL1        0.1437
      8 H         139.0123  140.4764  170.3458 H       1  UNL1        0.1437
      9 C         141.3837  139.0655  164.9640 C.ar    1  UNL1        0.0196
     10 C         140.9103  137.7451  164.4328 C.ar    1  UNL1        0.0016
     11 C         141.2055  137.3582  163.0140 C.ar    1  UNL1        0.0001
     12 C         141.9742  138.2917  162.1264 C.ar    1  UNL1        0.0030
     13 C         142.2695  137.9047  160.7075 C.ar    1  UNL1        0.0369
     14 C         143.0381  138.8382  159.8200 C.ar    1  UNL1        0.1384
     15 C         143.5115  140.1587  160.3513 C.ar    1  UNL1        0.0369
     16 C         143.2162  140.5456  161.7701 C.ar    1  UNL1        0.0031
     17 C         142.4476  139.6121  162.6577 C.ar    1  UNL1        0.0002
     18 C         142.1523  139.9990  164.0765 C.ar    1  UNL1        0.0016
     19 O         143.3334  138.4513  158.4012 O.3     1  UNL1       -0.4792
     20 C         142.2994  137.7277  157.5904 C.3     1  UNL1        0.1661
     21 C         141.9116  136.5800  156.7058 C.3     1  UNL1        0.0472
     22 C         140.8963  137.6221  157.0707 C.3     1  UNL1        0.0472
     23 C         138.4202  139.3100  166.3087 C.2     1  UNL1        0.2470
     24 N         138.0128  140.1574  165.1401 N.am    1  UNL1       -0.3252
     25 O         137.5215  138.2075  166.7852 O.2     1  UNL1       -0.2702
     26 H         138.6026  140.8810  164.8273 H       1  UNL1        0.1453
     27 H         137.1555  139.9901  164.6858 H       1  UNL1        0.1453
     28 C         142.8916  139.5569  170.7282 C.3     1  UNL1        0.0265
     29 C         141.9935  140.5159  170.0044 C.3     1  UNL1        0.1091
     30 C         141.7201  141.8715  170.5854 C.3     1  UNL1        0.0561
     31 C         142.6553  143.0102  170.3049 C.3     1  UNL1        0.1392
     32 O         143.9128  142.7725  169.5224 O.3     1  UNL1       -0.3819
     33 H         144.5057  142.1968  170.0302 H       1  UNL1        0.2104
@<TRIPOS>BOND
     1    28    29    1
     2    29    30    1
     3    30    31    1
     4    31    32    1
     5    29     1    1
     6     1     2   ar
     7     2     3   ar
     8     3     9    1
     9     9    10   ar
    10    10    11   ar
    11    11    12   ar
    12    12    13   ar
    13    13    14   ar
    14    14    19    1
    15    19    20    1
    16    20    21    1
    17    21    22    1
    18    14    15   ar
    19    15    16   ar
    20    16    17   ar
    21    17    18   ar
    22     3     4   ar
    23     4    23    1
    24    23    24   am
    25    23    25    2
    26     4     5   ar
    27     5     6    1
    28     5     1   ar
    29    18     9   ar
    30    17    12   ar
    31    22    20    1
    32    32    33    1
    33    24    26    1
    34    24    27    1
    35     6     7    1
    36     6     8    1
@<TRIPOS>MOLECULE
*****
 33 36 0 0 0
SMALL
GASTEIGER

@<TRIPOS>ATOM
      1 N         140.5289  140.3733  168.3309 N.ar    1  UNL1       -0.2399
      2 N         139.7758  140.2385  167.0407 N.ar    1  UNL1       -0.1681
      3 C         140.6823  139.5837  166.0409 C.ar    1  UNL1        0.1079
      4 C         141.9957  139.3137  166.7133 C.ar    1  UNL1        0.1031
      5 C         141.9009  139.8017  168.1285 C.ar    1  UNL1        0.1280
      6 N         142.9874  139.7305  169.1602 N.pl3   1  UNL1       -0.3427
      7 H         143.8592  139.3350  168.9306 H       1  UNL1        0.1437
      8 H         142.8287  140.0794  170.0671 H       1  UNL1        0.1437
      9 C         140.3361  139.2563  164.6186 C.ar    1  UNL1        0.0196
     10 C         139.9184  137.8637  164.2498 C.ar    1  UNL1        0.0016
     11 C         139.5722  137.5364  162.8275 C.ar    1  UNL1        0.0001
     12 C         139.6438  138.6017  161.7740 C.ar    1  UNL1        0.0030
     13 C         139.2976  138.2744  160.3516 C.ar    1  UNL1        0.0369
     14 C         139.3691  139.3397  159.2981 C.ar    1  UNL1        0.1384
     15 C         139.7869  140.7324  159.6669 C.ar    1  UNL1        0.0369
     16 C         140.1330  141.0597  161.0892 C.ar    1  UNL1        0.0031
     17 C         140.0615  139.9944  162.1427 C.ar    1  UNL1        0.0002
     18 C         140.4076  140.3217  163.5650 C.ar    1  UNL1        0.0016
     19 O         139.0230  139.0124  157.8757 O.3     1  UNL1       -0.4792
     20 C         140.0056  138.2746  157.0154 C.3     1  UNL1        0.1661
     21 C         141.1801  137.3508  156.8840 C.3     1  UNL1        0.0472
     22 C         140.5330  137.9205  155.6566 C.3     1  UNL1        0.0472
     23 C         143.1936  138.6690  166.0813 C.2     1  UNL1        0.2470
     24 N         143.4973  138.9086  164.6321 N.am    1  UNL1       -0.3252
     25 O         144.0878  137.7844  166.8988 O.2     1  UNL1       -0.2702
     26 H         142.9104  139.4891  164.0956 H       1  UNL1        0.1453
     27 H         144.2835  138.4854  164.2175 H       1  UNL1        0.1453
     28 C         138.8302  140.3486  170.2965 C.3     1  UNL1        0.0265
     29 C         140.0025  140.9741  169.6005 C.3     1  UNL1        0.1091
     30 C         140.6485  142.2003  170.1740 C.3     1  UNL1        0.0561
     31 C         141.7872  142.0656  171.1410 C.3     1  UNL1        0.1392
     32 O         141.9954  140.7767  171.8795 O.3     1  UNL1       -0.3819
     33 H         141.2512  140.6261  172.4832 H       1  UNL1        0.2104
@<TRIPOS>BOND
     1    28    29    1
     2    29    30    1
     3    30    31    1
     4    31    32    1
     5    29     1    1
     6     1     2   ar
     7     2     3   ar
     8     3     9    1
     9     9    10   ar
    10    10    11   ar
    11    11    12   ar
    12    12    13   ar
    13    13    14   ar
    14    14    19    1
    15    19    20    1
    16    20    21    1
    17    21    22    1
    18    14    15   ar
    19    15    16   ar
    20    16    17   ar
    21    17    18   ar
    22     3     4   ar
    23     4    23    1
    24    23    24   am
    25    23    25    2
    26     4     5   ar
    27     5     6    1
    28     5     1   ar
    29    18     9   ar
    30    17    12   ar
    31    22    20    1
    32    32    33    1
    33    24    26    1
    34    24    27    1
    35     6     7    1
    36     6     8    1
@<TRIPOS>MOLECULE
*****
 33 36 0 0 0
SMALL
GASTEIGER

@<TRIPOS>ATOM
      1 N         140.9763  142.8974  159.3149 N.ar    1  UNL1       -0.2399
      2 N         141.2157  142.0925  160.5578 N.ar    1  UNL1       -0.1681
      3 C         140.6802  142.8697  161.7237 C.ar    1  UNL1        0.1079
      4 C         140.1097  144.1548  161.2013 C.ar    1  UNL1        0.1031
      5 C         140.2927  144.1720  159.7126 C.ar    1  UNL1        0.1280
      6 N         139.8668  145.2708  158.7846 N.pl3   1  UNL1       -0.3427
      7 H         139.4227  146.0732  159.1427 H       1  UNL1        0.1437
      8 H         140.0315  145.1897  157.8174 H       1  UNL1        0.1437
      9 C         140.7099  142.4374  163.1598 C.ar    1  UNL1        0.0196
     10 C         141.7064  143.0413  164.1043 C.ar    1  UNL1        0.0016
     11 C         141.7361  142.6091  165.5403 C.ar    1  UNL1        0.0001
     12 C         140.7692  141.5730  166.0319 C.ar    1  UNL1        0.0030
     13 C         140.7989  141.1407  167.4680 C.ar    1  UNL1        0.0369
     14 C         139.8320  140.1046  167.9595 C.ar    1  UNL1        0.1384
     15 C         138.8354  139.5007  167.0149 C.ar    1  UNL1        0.0369
     16 C         138.8057  139.9330  165.5789 C.ar    1  UNL1        0.0031
     17 C         139.7726  140.9691  165.0874 C.ar    1  UNL1        0.0002
     18 C         139.7430  141.4013  163.6513 C.ar    1  UNL1        0.0016
     19 O         139.8617  139.6724  169.3955 O.3     1  UNL1       -0.4792
     20 C         140.8464  140.2892  170.3443 C.3     1  UNL1        0.1661
     21 C         142.2501  140.4190  170.8569 C.3     1  UNL1        0.0472
     22 C         141.1482  141.2276  171.4748 C.3     1  UNL1        0.0472
     23 C         139.4687  145.2335  162.0233 C.2     1  UNL1        0.2470
     24 N         140.2615  146.4420  162.4244 N.am    1  UNL1       -0.3252
     25 O         138.0348  145.1035  162.4443 O.2     1  UNL1       -0.2702
     26 H         141.2026  146.5273  162.1481 H       1  UNL1        0.1453
     27 H         139.8408  147.1499  162.9639 H       1  UNL1        0.1453
     28 C         140.4655  141.5773  157.1362 C.3     1  UNL1        0.0265
     29 C         141.3540  142.4979  157.9193 C.3     1  UNL1        0.1091
     30 C         142.6203  143.0189  157.3068 C.3     1  UNL1        0.0561
     31 C         142.6535  144.3939  156.7084 C.3     1  UNL1        0.1392
     32 O         142.6824  145.5995  157.6004 O.3     1  UNL1       -0.3819
     33 H         141.8490  145.6571  158.0934 H       1  UNL1        0.2104
@<TRIPOS>BOND
     1    28    29    1
     2    29    30    1
     3    30    31    1
     4    31    32    1
     5    29     1    1
     6     1     2   ar
     7     2     3   ar
     8     3     9    1
     9     9    10   ar
    10    10    11   ar
    11    11    12   ar
    12    12    13   ar
    13    13    14   ar
    14    14    19    1
    15    19    20    1
    16    20    21    1
    17    21    22    1
    18    14    15   ar
    19    15    16   ar
    20    16    17   ar
    21    17    18   ar
    22     3     4   ar
    23     4    23    1
    24    23    24   am
    25    23    25    2
    26     4     5   ar
    27     5     6    1
    28     5     1   ar
    29    18     9   ar
    30    17    12   ar
    31    22    20    1
    32    32    33    1
    33    24    26    1
    34    24    27    1
    35     6     7    1
    36     6     8    1
