@<TRIPOS>MOLECULE
*****
 38 41 0 0 0
SMALL
GASTEIGER

@<TRIPOS>ATOM
      1 N         140.2136  138.9614  163.0363 N.3     1  UNL1       -0.2711
      2 C         140.0160  137.8626  162.0345 C.3     1  UNL1        0.0933
      3 C         140.7095  138.6884  160.9919 C.3     1  UNL1        0.1035
      4 C         140.9070  139.7873  161.9937 C.3     1  UNL1        0.0933
      5 C         139.1619  139.5406  167.3731 C.3     1  UNL1        0.1140
      6 O         138.0991  139.1554  168.3591 O.3     1  UNL1       -0.3821
      7 C         140.4071  140.1623  166.8139 C.3     1  UNL1        0.0331
      8 C         140.7577  139.9692  165.3683 C.3     1  UNL1        0.0187
      9 C         139.8630  139.1545  164.4820 C.3     1  UNL1        0.0578
     10 C         138.6177  138.5328  165.0412 C.3     1  UNL1        0.0187
     11 C         138.2672  138.7259  166.4868 C.3     1  UNL1        0.0331
     12 H         138.3097  139.5354  169.2264 H       1  UNL1        0.2107
     13 C         141.1517  141.3862  170.1481 C.ar    1  UNL1        0.0880
     14 N         139.8405  141.1527  170.8381 N.ar    1  UNL1       -0.2414
     15 C         138.9355  140.4330  169.8826 C.ar    1  UNL1        0.1034
     16 C         139.6874  140.2216  168.6020 C.ar    1  UNL1        0.0514
     17 S         141.0571  140.8107  168.7661 S.2     1  UNL1       -0.0728
     18 C         143.4907  142.4782  169.8533 C.3     1  UNL1        0.0073
     19 C         142.3476  142.0743  170.7367 C.3     1  UNL1        0.0526
     20 N         141.0601  138.4954  159.5463 N.am    1  UNL1       -0.3018
     21 C         140.0361  138.7649  158.4837 C.2     1  UNL1        0.2426
     22 O         138.6615  139.2273  158.8668 O.2     1  UNL1       -0.2733
     23 H         141.9622  138.1919  159.2949 H       1  UNL1        0.1495
     24 C         140.3867  138.5718  157.0381 C.3     1  UNL1        0.1759
     25 N         140.7931  137.2168  156.5394 N.am    1  UNL1       -0.2931
     26 C         142.1844  136.7132  156.7857 C.2     1  UNL1        0.2462
     27 O         143.1693  137.5646  157.5306 O.2     1  UNL1       -0.2701
     28 H         140.1466  136.6580  156.0505 H       1  UNL1        0.1502
     29 C         142.5908  135.3581  156.2870 C.ar    1  UNL1        0.0533
     30 C         142.1559  134.8980  154.9272 C.ar    1  UNL1        0.0045
     31 C         142.5623  133.5428  154.4285 C.ar    1  UNL1        0.0001
     32 C         143.4035  132.6480  155.2896 C.ar    1  UNL1        0.0039
     33 C         143.8383  133.1082  156.6495 C.ar    1  UNL1        0.0716
     34 C         143.4320  134.4632  157.1481 C.ar    1  UNL1        0.0084
     35 C         144.6795  132.2133  157.5106 C.3     1  UNL1        0.4186
     36 F         145.5207  131.3184  158.3718 F       1  UNL1       -0.1659
     37 F         144.3939  131.0617  156.5928 F       1  UNL1       -0.1659
     38 F         144.9651  133.3649  158.4283 F       1  UNL1       -0.1659
@<TRIPOS>BOND
     1    18    19    1
     2    19    13    1
     3    13    14   ar
     4    14    15   ar
     5    15    16   ar
     6    16     5    1
     7     5     6    1
     8     5     7    1
     9     7     8    1
    10     8     9    1
    11     9     1    1
    12     1     2    1
    13     2     3    1
    14     3    20    1
    15    20    21   am
    16    21    22    2
    17    21    24    1
    18    24    25    1
    19    25    26   am
    20    26    27    2
    21    26    29    1
    22    29    30   ar
    23    30    31   ar
    24    31    32   ar
    25    32    33   ar
    26    33    35    1
    27    35    36    1
    28    35    37    1
    29    35    38    1
    30    33    34   ar
    31     3     4    1
    32     9    10    1
    33    10    11    1
    34    16    17   ar
    35    17    13   ar
    36    11     5    1
    37     4     1    1
    38    34    29   ar
    39     6    12    1
    40    20    23    1
    41    25    28    1
@<TRIPOS>MOLECULE
*****
 38 41 0 0 0
SMALL
GASTEIGER

@<TRIPOS>ATOM
      1 N         140.2330  138.9655  162.8307 N.3     1  UNL1       -0.2711
      2 C         139.9402  137.8949  161.8218 C.3     1  UNL1        0.0933
      3 C         140.7457  138.6391  160.7983 C.3     1  UNL1        0.1035
      4 C         141.0385  139.7097  161.8073 C.3     1  UNL1        0.0933
      5 C         139.1457  139.6582  167.1421 C.3     1  UNL1        0.1140
      6 O         138.1433  139.2044  168.1615 O.3     1  UNL1       -0.3821
      7 C         140.3034  140.3924  166.5333 C.3     1  UNL1        0.0331
      8 C         140.6658  140.1615  165.0962 C.3     1  UNL1        0.0187
      9 C         139.8705  139.1964  164.2679 C.3     1  UNL1        0.0578
     10 C         138.7128  138.4622  164.8767 C.3     1  UNL1        0.0187
     11 C         138.3504  138.6931  166.3138 C.3     1  UNL1        0.0331
     12 H         138.3117  139.6553  169.0037 H       1  UNL1        0.2107
     13 C         140.6145  142.1974  169.6840 C.ar    1  UNL1        0.0880
     14 N         139.9469  141.2191  170.6044 N.ar    1  UNL1       -0.2414
     15 C         139.3154  140.1488  169.7642 C.ar    1  UNL1        0.1034
     16 C         139.5928  140.4657  168.3245 C.ar    1  UNL1        0.0514
     17 S         140.3956  141.7318  168.2749 S.2     1  UNL1       -0.0728
     18 C         142.7357  143.2979  170.7033 C.3     1  UNL1        0.0073
     19 C         141.3685  143.4257  170.0996 C.3     1  UNL1        0.0526
     20 N         141.1081  138.4082  159.3613 N.am    1  UNL1       -0.3018
     21 C         140.0846  138.6228  158.2858 C.2     1  UNL1        0.2426
     22 O         138.6987  139.0681  158.6475 O.2     1  UNL1       -0.2733
     23 H         142.0178  138.1160  159.1239 H       1  UNL1        0.1495
     24 C         140.4471  138.3919  156.8487 C.3     1  UNL1        0.1759
     25 N         140.8661  137.0263  156.3910 N.am    1  UNL1       -0.2931
     26 C         142.2583  136.5385  156.6626 C.2     1  UNL1        0.2462
     27 O         143.2316  137.4164  157.3921 O.2     1  UNL1       -0.2701
     28 H         140.2273  136.4501  155.9122 H       1  UNL1        0.1502
     29 C         142.6773  135.1730  156.2049 C.ar    1  UNL1        0.0533
     30 C         143.6748  134.3874  157.0036 C.ar    1  UNL1        0.0045
     31 C         144.0938  133.0218  156.5458 C.ar    1  UNL1        0.0001
     32 C         143.5152  132.4417  155.2893 C.ar    1  UNL1        0.0039
     33 C         142.5176  133.2272  154.4906 C.ar    1  UNL1        0.0716
     34 C         142.0987  134.5928  154.9484 C.ar    1  UNL1        0.0084
     35 C         141.9391  132.6471  153.2342 C.3     1  UNL1        0.4186
     36 F         141.3605  132.0670  151.9777 F       1  UNL1       -0.1659
     37 F         143.1489  131.7736  153.0804 F       1  UNL1       -0.1659
     38 F         140.7294  133.5205  153.3880 F       1  UNL1       -0.1659
@<TRIPOS>BOND
     1    18    19    1
     2    19    13    1
     3    13    14   ar
     4    14    15   ar
     5    15    16   ar
     6    16     5    1
     7     5     6    1
     8     5     7    1
     9     7     8    1
    10     8     9    1
    11     9     1    1
    12     1     2    1
    13     2     3    1
    14     3    20    1
    15    20    21   am
    16    21    22    2
    17    21    24    1
    18    24    25    1
    19    25    26   am
    20    26    27    2
    21    26    29    1
    22    29    30   ar
    23    30    31   ar
    24    31    32   ar
    25    32    33   ar
    26    33    35    1
    27    35    36    1
    28    35    37    1
    29    35    38    1
    30    33    34   ar
    31     3     4    1
    32     9    10    1
    33    10    11    1
    34    16    17   ar
    35    17    13   ar
    36    11     5    1
    37     4     1    1
    38    34    29   ar
    39     6    12    1
    40    20    23    1
    41    25    28    1
@<TRIPOS>MOLECULE
*****
 38 41 0 0 0
SMALL
GASTEIGER

@<TRIPOS>ATOM
      1 N         144.3788  142.4519  158.0374 N.3     1  UNL1       -0.2711
      2 C         143.2284  143.3889  158.2575 C.3     1  UNL1        0.0933
      3 C         142.9779  142.7662  159.5989 C.3     1  UNL1        0.1035
      4 C         144.1283  141.8292  159.3788 C.3     1  UNL1        0.0933
      5 C         147.3508  141.7850  154.7249 C.3     1  UNL1        0.1140
      6 O         147.4292  141.1738  153.3573 O.3     1  UNL1       -0.3821
      7 C         147.7723  142.4902  155.9799 C.3     1  UNL1        0.0331
      8 C         146.7816  142.7125  157.0840 C.3     1  UNL1        0.0187
      9 C         145.3695  142.2296  156.9331 C.3     1  UNL1        0.0578
     10 C         144.9481  141.5244  155.6782 C.3     1  UNL1        0.0187
     11 C         145.9387  141.3021  154.5740 C.3     1  UNL1        0.0331
     12 H         148.3288  141.2753  153.0089 H       1  UNL1        0.2107
     13 C         150.7941  142.9339  153.3502 C.ar    1  UNL1        0.0880
     14 N         151.2162  142.0100  154.4539 N.ar    1  UNL1       -0.2414
     15 C         149.9778  141.4672  155.1032 C.ar    1  UNL1        0.1034
     16 C         148.7902  142.0556  154.4008 C.ar    1  UNL1        0.0514
     17 S         149.2947  142.9621  153.3173 S.2     1  UNL1       -0.0728
     18 C         152.8852  144.4369  153.0057 C.3     1  UNL1        0.0073
     19 C         151.7104  143.6959  152.4392 C.3     1  UNL1        0.0526
     20 N         141.9873  142.9885  160.7031 N.am    1  UNL1       -0.3018
     21 C         142.3714  143.8032  161.9026 C.2     1  UNL1        0.2426
     22 O         143.7461  144.3957  161.9978 O.2     1  UNL1       -0.2733
     23 H         141.0850  142.5996  160.6406 H       1  UNL1        0.1495
     24 C         141.3808  144.0255  163.0068 C.3     1  UNL1        0.1759
     25 N         141.1890  142.9790  164.0641 N.am    1  UNL1       -0.2931
     26 C         140.1425  143.1652  165.1226 C.2     1  UNL1        0.2462
     27 O         139.2879  144.3979  165.1237 O.2     1  UNL1       -0.2701
     28 H         141.7499  142.1699  164.0634 H       1  UNL1        0.1502
     29 C         139.9507  142.1187  166.1800 C.ar    1  UNL1        0.0533
     30 C         140.4268  142.3709  167.5799 C.ar    1  UNL1        0.0045
     31 C         140.2350  141.3243  168.6372 C.ar    1  UNL1        0.0001
     32 C         139.5671  140.0257  168.2947 C.ar    1  UNL1        0.0039
     33 C         139.0910  139.7735  166.8948 C.ar    1  UNL1        0.0716
     34 C         139.2827  140.8200  165.8374 C.ar    1  UNL1        0.0084
     35 C         138.4230  138.4749  166.5522 C.3     1  UNL1        0.4186
     36 F         137.7550  137.1762  166.2097 F       1  UNL1       -0.1659
     37 F         137.3924  138.7252  167.6130 F       1  UNL1       -0.1659
     38 F         139.4536  138.2246  165.4915 F       1  UNL1       -0.1659
@<TRIPOS>BOND
     1    18    19    1
     2    19    13    1
     3    13    14   ar
     4    14    15   ar
     5    15    16   ar
     6    16     5    1
     7     5     6    1
     8     5     7    1
     9     7     8    1
    10     8     9    1
    11     9     1    1
    12     1     2    1
    13     2     3    1
    14     3    20    1
    15    20    21   am
    16    21    22    2
    17    21    24    1
    18    24    25    1
    19    25    26   am
    20    26    27    2
    21    26    29    1
    22    29    30   ar
    23    30    31   ar
    24    31    32   ar
    25    32    33   ar
    26    33    35    1
    27    35    36    1
    28    35    37    1
    29    35    38    1
    30    33    34   ar
    31     3     4    1
    32     9    10    1
    33    10    11    1
    34    16    17   ar
    35    17    13   ar
    36    11     5    1
    37     4     1    1
    38    34    29   ar
    39     6    12    1
    40    20    23    1
    41    25    28    1
@<TRIPOS>MOLECULE
*****
 38 41 0 0 0
SMALL
GASTEIGER

@<TRIPOS>ATOM
      1 N         139.4885  140.2372  160.4409 N.3     1  UNL1       -0.2711
      2 C         139.7356  140.4150  158.9721 C.3     1  UNL1        0.0933
      3 C         138.2589  140.3530  158.7161 C.3     1  UNL1        0.1035
      4 C         138.0118  140.1752  160.1849 C.3     1  UNL1        0.0933
      5 C         142.0965  139.9915  164.0998 C.3     1  UNL1        0.1140
      6 O         143.4768  139.5621  164.5003 O.3     1  UNL1       -0.3821
      7 C         140.6994  140.5265  164.2092 C.3     1  UNL1        0.0331
      8 C         139.8301  140.6083  162.9896 C.3     1  UNL1        0.0187
      9 C         140.3579  140.1552  161.6606 C.3     1  UNL1        0.0578
     10 C         141.7549  139.6203  161.5512 C.3     1  UNL1        0.0187
     11 C         142.6242  139.5384  162.7709 C.3     1  UNL1        0.0331
     12 H         143.5960  139.7038  165.4525 H       1  UNL1        0.2107
     13 C         142.5167  141.2729  167.7395 C.ar    1  UNL1        0.0880
     14 N         141.4307  140.2531  167.9148 N.ar    1  UNL1       -0.2414
     15 C         141.1411  139.6490  166.5727 C.ar    1  UNL1        0.1034
     16 C         142.0482  140.2954  165.5679 C.ar    1  UNL1        0.0514
     17 S         142.8983  141.2990  166.2891 S.2     1  UNL1       -0.0728
     18 C         142.2260  142.9085  169.7372 C.3     1  UNL1        0.0073
     19 C         143.1159  142.1182  168.8242 C.3     1  UNL1        0.0526
     20 N         137.3896  140.4349  157.4965 N.am    1  UNL1       -0.3018
     21 C         137.2243  141.7421  156.7797 C.2     1  UNL1        0.2426
     22 O         137.9284  142.9674  157.2825 O.2     1  UNL1       -0.2733
     23 H         136.9274  139.6306  157.1666 H       1  UNL1        0.1495
     24 C         136.3549  141.8240  155.5601 C.3     1  UNL1        0.1759
     25 N         134.8619  141.7886  155.6997 N.am    1  UNL1       -0.2931
     26 C         134.1563  140.4772  155.8802 C.2     1  UNL1        0.2462
     27 O         134.9439  139.2013  155.9211 O.2     1  UNL1       -0.2701
     28 H         134.3450  142.6261  155.6728 H       1  UNL1        0.1502
     29 C         132.6633  140.4418  156.0198 C.ar    1  UNL1        0.0533
     30 C         131.8242  141.5045  155.3742 C.ar    1  UNL1        0.0045
     31 C         130.3311  141.4690  155.5138 C.ar    1  UNL1        0.0001
     32 C         129.6771  140.3710  156.2989 C.ar    1  UNL1        0.0039
     33 C         130.5161  139.3083  156.9445 C.ar    1  UNL1        0.0716
     34 C         132.0092  139.3437  156.8050 C.ar    1  UNL1        0.0084
     35 C         129.8622  138.2103  157.7297 C.3     1  UNL1        0.4186
     36 F         129.2081  137.1122  158.5149 F       1  UNL1       -0.1659
     37 F         130.0436  137.2742  156.5717 F       1  UNL1       -0.1659
     38 F         129.6807  139.1464  158.8876 F       1  UNL1       -0.1659
@<TRIPOS>BOND
     1    18    19    1
     2    19    13    1
     3    13    14   ar
     4    14    15   ar
     5    15    16   ar
     6    16     5    1
     7     5     6    1
     8     5     7    1
     9     7     8    1
    10     8     9    1
    11     9     1    1
    12     1     2    1
    13     2     3    1
    14     3    20    1
    15    20    21   am
    16    21    22    2
    17    21    24    1
    18    24    25    1
    19    25    26   am
    20    26    27    2
    21    26    29    1
    22    29    30   ar
    23    30    31   ar
    24    31    32   ar
    25    32    33   ar
    26    33    35    1
    27    35    36    1
    28    35    37    1
    29    35    38    1
    30    33    34   ar
    31     3     4    1
    32     9    10    1
    33    10    11    1
    34    16    17   ar
    35    17    13   ar
    36    11     5    1
    37     4     1    1
    38    34    29   ar
    39     6    12    1
    40    20    23    1
    41    25    28    1
@<TRIPOS>MOLECULE
*****
 38 41 0 0 0
SMALL
GASTEIGER

@<TRIPOS>ATOM
      1 N         143.1781  139.8903  162.3222 N.3     1  UNL1       -0.2711
      2 C         142.2020  138.9728  161.6474 C.3     1  UNL1        0.0933
      3 C         143.1212  138.8629  160.4671 C.3     1  UNL1        0.1035
      4 C         144.0973  139.7804  161.1420 C.3     1  UNL1        0.0933
      5 C         143.2989  142.0698  166.2573 C.3     1  UNL1        0.1140
      6 O         143.9967  143.2265  166.9092 O.3     1  UNL1       -0.3821
      7 C         142.3802  140.8978  166.0770 C.3     1  UNL1        0.0331
      8 C         142.3400  140.1714  164.7653 C.3     1  UNL1        0.0187
      9 C         143.2184  140.6168  163.6340 C.3     1  UNL1        0.0578
     10 C         144.1371  141.7888  163.8143 C.3     1  UNL1        0.0187
     11 C         144.1773  142.5152  165.1260 C.3     1  UNL1        0.0331
     12 H         143.6783  143.3245  167.8202 H       1  UNL1        0.2107
     13 C         141.0142  141.8457  169.3872 C.ar    1  UNL1        0.0880
     14 N         142.3542  142.0721  170.0220 N.ar    1  UNL1       -0.2414
     15 C         143.3731  142.1836  168.9269 C.ar    1  UNL1        0.1034
     16 C         142.6629  142.0261  167.6151 C.ar    1  UNL1        0.0514
     17 S         141.2050  141.8172  167.8996 S.2     1  UNL1       -0.0728
     18 C         138.8990  140.4323  169.9147 C.3     1  UNL1        0.0073
     19 C         139.7121  141.6772  170.1125 C.3     1  UNL1        0.0526
     20 N         143.0810  138.1365  159.1555 N.am    1  UNL1       -0.3018
     21 C         142.1467  138.5922  158.0740 C.2     1  UNL1        0.2426
     22 O         141.2526  139.7744  158.3043 O.2     1  UNL1       -0.2733
     23 H         143.6678  137.3605  159.0043 H       1  UNL1        0.1495
     24 C         142.1064  137.8657  156.7623 C.3     1  UNL1        0.1759
     25 N         141.9330  136.3761  156.7351 N.am    1  UNL1       -0.2931
     26 C         143.0187  135.5047  156.1765 C.2     1  UNL1        0.2462
     27 O         144.2778  136.1230  155.6451 O.2     1  UNL1       -0.2701
     28 H         141.1066  135.9703  157.0838 H       1  UNL1        0.1502
     29 C         142.8453  134.0150  156.1492 C.ar    1  UNL1        0.0533
     30 C         141.7904  133.3985  155.2790 C.ar    1  UNL1        0.0045
     31 C         141.6170  131.9088  155.2518 C.ar    1  UNL1        0.0001
     32 C         142.4984  131.0356  156.0948 C.ar    1  UNL1        0.0039
     33 C         143.5532  131.6521  156.9650 C.ar    1  UNL1        0.0716
     34 C         143.7267  133.1417  156.9922 C.ar    1  UNL1        0.0084
     35 C         144.4346  130.7789  157.8080 C.3     1  UNL1        0.4186
     36 F         145.3161  129.9057  158.6510 F       1  UNL1       -0.1659
     37 F         145.5867  131.7086  157.5663 F       1  UNL1       -0.1659
     38 F         143.2825  129.8493  158.0496 F       1  UNL1       -0.1659
@<TRIPOS>BOND
     1    18    19    1
     2    19    13    1
     3    13    14   ar
     4    14    15   ar
     5    15    16   ar
     6    16     5    1
     7     5     6    1
     8     5     7    1
     9     7     8    1
    10     8     9    1
    11     9     1    1
    12     1     2    1
    13     2     3    1
    14     3    20    1
    15    20    21   am
    16    21    22    2
    17    21    24    1
    18    24    25    1
    19    25    26   am
    20    26    27    2
    21    26    29    1
    22    29    30   ar
    23    30    31   ar
    24    31    32   ar
    25    32    33   ar
    26    33    35    1
    27    35    36    1
    28    35    37    1
    29    35    38    1
    30    33    34   ar
    31     3     4    1
    32     9    10    1
    33    10    11    1
    34    16    17   ar
    35    17    13   ar
    36    11     5    1
    37     4     1    1
    38    34    29   ar
    39     6    12    1
    40    20    23    1
    41    25    28    1
@<TRIPOS>MOLECULE
*****
 38 41 0 0 0
SMALL
GASTEIGER

@<TRIPOS>ATOM
      1 N         138.4720  141.9497  158.9839 N.3     1  UNL1       -0.2711
      2 C         138.6993  142.1256  160.4561 C.3     1  UNL1        0.0933
      3 C         138.5176  140.6507  160.6603 C.3     1  UNL1        0.1035
      4 C         138.2903  140.4748  159.1881 C.3     1  UNL1        0.0933
      5 C         138.3753  144.7054  155.4276 C.3     1  UNL1        0.1140
      6 O         137.5364  144.9903  154.2172 O.3     1  UNL1       -0.3821
      7 C         139.4884  144.8102  156.4276 C.3     1  UNL1        0.0331
      8 C         139.5206  143.8917  157.6130 C.3     1  UNL1        0.0187
      9 C         138.4398  142.8683  157.7984 C.3     1  UNL1        0.0578
     10 C         137.3267  142.7634  156.7984 C.3     1  UNL1        0.0187
     11 C         137.2945  143.6820  155.6130 C.3     1  UNL1        0.0331
     12 H         137.9346  145.7159  153.7114 H       1  UNL1        0.2107
     13 C         139.9605  148.0516  154.2634 C.ar    1  UNL1        0.0880
     14 N         140.7990  147.0580  153.5155 N.ar    1  UNL1       -0.2414
     15 C         140.3073  145.6835  153.8606 C.ar    1  UNL1        0.1034
     16 C         139.1648  145.8277  154.8218 C.ar    1  UNL1        0.0514
     17 S         138.9505  147.2913  155.0708 S.2     1  UNL1       -0.0728
     18 C         139.1200  150.4183  154.9286 C.3     1  UNL1        0.0073
     19 C         140.1064  149.5437  154.2129 C.3     1  UNL1        0.0526
     20 N         138.5498  139.7321  161.8457 N.am    1  UNL1       -0.3018
     21 C         139.6055  138.6709  161.9438 C.2     1  UNL1        0.2426
     22 O         140.6289  138.5284  160.8564 O.2     1  UNL1       -0.2733
     23 H         137.8781  139.8257  162.5594 H       1  UNL1        0.1495
     24 C         139.6377  137.7524  163.1292 C.3     1  UNL1        0.1759
     25 N         140.3570  138.1657  164.3788 N.am    1  UNL1       -0.2931
     26 C         139.7868  139.2455  165.2501 C.2     1  UNL1        0.2462
     27 O         138.4974  139.9119  164.8717 O.2     1  UNL1       -0.2701
     28 H         141.2033  137.7283  164.6272 H       1  UNL1        0.1502
     29 C         140.5061  139.6588  166.4998 C.ar    1  UNL1        0.0533
     30 C         141.9032  139.1764  166.7555 C.ar    1  UNL1        0.0045
     31 C         142.6225  139.5898  168.0052 C.ar    1  UNL1        0.0001
     32 C         141.9446  140.4855  168.9993 C.ar    1  UNL1        0.0039
     33 C         140.5475  140.9679  168.7437 C.ar    1  UNL1        0.0716
     34 C         139.8283  140.5545  167.4940 C.ar    1  UNL1        0.0084
     35 C         139.8697  141.8636  169.7377 C.3     1  UNL1        0.4186
     36 F         139.1918  142.7593  170.7318 F       1  UNL1       -0.1659
     37 F         140.9041  142.9213  169.4900 F       1  UNL1       -0.1659
     38 F         138.8353  140.8059  169.9854 F       1  UNL1       -0.1659
@<TRIPOS>BOND
     1    18    19    1
     2    19    13    1
     3    13    14   ar
     4    14    15   ar
     5    15    16   ar
     6    16     5    1
     7     5     6    1
     8     5     7    1
     9     7     8    1
    10     8     9    1
    11     9     1    1
    12     1     2    1
    13     2     3    1
    14     3    20    1
    15    20    21   am
    16    21    22    2
    17    21    24    1
    18    24    25    1
    19    25    26   am
    20    26    27    2
    21    26    29    1
    22    29    30   ar
    23    30    31   ar
    24    31    32   ar
    25    32    33   ar
    26    33    35    1
    27    35    36    1
    28    35    37    1
    29    35    38    1
    30    33    34   ar
    31     3     4    1
    32     9    10    1
    33    10    11    1
    34    16    17   ar
    35    17    13   ar
    36    11     5    1
    37     4     1    1
    38    34    29   ar
    39     6    12    1
    40    20    23    1
    41    25    28    1
@<TRIPOS>MOLECULE
*****
 38 41 0 0 0
SMALL
GASTEIGER

@<TRIPOS>ATOM
      1 N         142.8990  139.3296  161.7014 N.3     1  UNL1       -0.2711
      2 C         142.9361  137.9307  161.1613 C.3     1  UNL1        0.0933
      3 C         142.8516  138.4682  159.7634 C.3     1  UNL1        0.1035
      4 C         142.8145  139.8671  160.3036 C.3     1  UNL1        0.0933
      5 C         142.9994  141.1570  165.8125 C.3     1  UNL1        0.1140
      6 O         143.5615  142.3508  166.5258 O.3     1  UNL1       -0.3821
      7 C         142.2601  139.8727  165.5805 C.3     1  UNL1        0.0331
      8 C         142.2266  139.2636  164.2101 C.3     1  UNL1        0.0187
      9 C         142.9325  139.9388  163.0718 C.3     1  UNL1        0.0578
     10 C         143.6719  141.2231  163.3038 C.3     1  UNL1        0.0187
     11 C         143.7053  141.8322  164.6741 C.3     1  UNL1        0.0331
     12 H         143.3060  142.3185  167.4610 H       1  UNL1        0.2107
     13 C         141.4196  141.1893  169.3577 C.ar    1  UNL1        0.0880
     14 N         141.9863  139.8015  169.3056 N.ar    1  UNL1       -0.2414
     15 C         142.6471  139.6205  167.9712 C.ar    1  UNL1        0.1034
     16 C         142.4888  140.8964  167.1986 C.ar    1  UNL1        0.0514
     17 S         141.7301  141.8660  168.0555 S.2     1  UNL1       -0.0728
     18 C         139.9852  143.1170  170.3459 C.3     1  UNL1        0.0073
     19 C         140.6733  141.7942  170.5097 C.3     1  UNL1        0.0526
     20 N         142.8181  137.8592  158.3931 N.am    1  UNL1       -0.3018
     21 C         141.5281  137.8001  157.6299 C.2     1  UNL1        0.2426
     22 O         140.2716  138.3501  158.2371 O.2     1  UNL1       -0.2733
     23 H         143.6428  137.4982  157.9946 H       1  UNL1        0.1495
     24 C         141.4946  137.1910  156.2596 C.3     1  UNL1        0.1759
     25 N         141.3559  135.7057  156.1022 N.am    1  UNL1       -0.2931
     26 C         142.5624  134.8227  156.2243 C.2     1  UNL1        0.2462
     27 O         143.9075  135.4250  156.5037 O.2     1  UNL1       -0.2701
     28 H         140.4731  135.3104  155.9189 H       1  UNL1        0.1502
     29 C         142.4238  133.3375  156.0669 C.ar    1  UNL1        0.0533
     30 C         141.3470  132.7737  155.1879 C.ar    1  UNL1        0.0045
     31 C         141.2084  131.2883  155.0306 C.ar    1  UNL1        0.0001
     32 C         142.1466  130.3669  155.7522 C.ar    1  UNL1        0.0039
     33 C         143.2233  130.9308  156.6313 C.ar    1  UNL1        0.0716
     34 C         143.3619  132.4160  156.7886 C.ar    1  UNL1        0.0084
     35 C         144.1614  130.0094  157.3530 C.3     1  UNL1        0.4186
     36 F         145.0996  129.0879  158.0747 F       1  UNL1       -0.1659
     37 F         143.7157  128.8728  156.4813 F       1  UNL1       -0.1659
     38 F         144.6072  131.1458  158.2246 F       1  UNL1       -0.1659
@<TRIPOS>BOND
     1    18    19    1
     2    19    13    1
     3    13    14   ar
     4    14    15   ar
     5    15    16   ar
     6    16     5    1
     7     5     6    1
     8     5     7    1
     9     7     8    1
    10     8     9    1
    11     9     1    1
    12     1     2    1
    13     2     3    1
    14     3    20    1
    15    20    21   am
    16    21    22    2
    17    21    24    1
    18    24    25    1
    19    25    26   am
    20    26    27    2
    21    26    29    1
    22    29    30   ar
    23    30    31   ar
    24    31    32   ar
    25    32    33   ar
    26    33    35    1
    27    35    36    1
    28    35    37    1
    29    35    38    1
    30    33    34   ar
    31     3     4    1
    32     9    10    1
    33    10    11    1
    34    16    17   ar
    35    17    13   ar
    36    11     5    1
    37     4     1    1
    38    34    29   ar
    39     6    12    1
    40    20    23    1
    41    25    28    1
@<TRIPOS>MOLECULE
*****
 38 41 0 0 0
SMALL
GASTEIGER

@<TRIPOS>ATOM
      1 N         143.1225  139.9769  159.3545 N.3     1  UNL1       -0.2711
      2 C         142.5681  139.9503  160.7480 C.3     1  UNL1        0.0933
      3 C         143.1603  141.3034  161.0094 C.3     1  UNL1        0.1035
      4 C         143.7147  141.3300  159.6159 C.3     1  UNL1        0.0933
      5 C         143.0423  137.1630  155.8437 C.3     1  UNL1        0.1140
      6 O         143.3604  137.1452  154.3779 O.3     1  UNL1       -0.3821
      7 C         142.5996  136.6880  157.1958 C.3     1  UNL1        0.0331
      8 C         142.6263  137.6259  158.3660 C.3     1  UNL1        0.0187
      9 C         143.0958  139.0389  158.1841 C.3     1  UNL1        0.0578
     10 C         143.5385  139.5140  156.8320 C.3     1  UNL1        0.0187
     11 C         143.5117  138.5760  155.6618 C.3     1  UNL1        0.0331
     12 H         143.1725  136.2647  154.0170 H       1  UNL1        0.2107
     13 C         142.8093  133.3358  155.2406 C.ar    1  UNL1        0.0880
     14 N         141.4524  133.7842  154.7851 N.ar    1  UNL1       -0.2414
     15 C         141.3745  135.2724  154.9555 C.ar    1  UNL1        0.1034
     16 C         142.6834  135.7439  155.5165 C.ar    1  UNL1        0.0514
     17 S         143.5702  134.5469  155.6927 S.2     1  UNL1       -0.0728
     18 C         143.0831  131.0459  156.4371 C.3     1  UNL1        0.0073
     19 C         143.3165  131.9241  155.2437 C.3     1  UNL1        0.0526
     20 N         143.1870  142.2414  162.1797 N.am    1  UNL1       -0.3018
     21 C         144.3849  142.2812  163.0817 C.2     1  UNL1        0.2426
     22 O         145.5560  141.3831  162.8135 O.2     1  UNL1       -0.2733
     23 H         142.4184  142.8308  162.3557 H       1  UNL1        0.1495
     24 C         144.4116  143.2192  164.2520 C.3     1  UNL1        0.1759
     25 N         143.9714  142.7434  165.6046 N.am    1  UNL1       -0.2931
     26 C         142.6432  142.0650  165.7654 C.2     1  UNL1        0.2462
     27 O         141.7554  141.8623  164.5735 O.2     1  UNL1       -0.2701
     28 H         144.5541  142.8764  166.3869 H       1  UNL1        0.1502
     29 C         142.2029  141.5892  167.1181 C.ar    1  UNL1        0.0533
     30 C         142.6095  140.2295  167.6039 C.ar    1  UNL1        0.0045
     31 C         142.1692  139.7537  168.9566 C.ar    1  UNL1        0.0001
     32 C         141.3224  140.6376  169.8235 C.ar    1  UNL1        0.0039
     33 C         140.9158  141.9973  169.3378 C.ar    1  UNL1        0.0716
     34 C         141.3561  142.4731  167.9851 C.ar    1  UNL1        0.0084
     35 C         140.0690  142.8813  170.2047 C.3     1  UNL1        0.4186
     36 F         139.2222  143.7653  171.0716 F       1  UNL1       -0.1659
     37 F         141.0554  143.9978  170.0296 F       1  UNL1       -0.1659
     38 F         139.0828  141.7647  170.3797 F       1  UNL1       -0.1659
@<TRIPOS>BOND
     1    18    19    1
     2    19    13    1
     3    13    14   ar
     4    14    15   ar
     5    15    16   ar
     6    16     5    1
     7     5     6    1
     8     5     7    1
     9     7     8    1
    10     8     9    1
    11     9     1    1
    12     1     2    1
    13     2     3    1
    14     3    20    1
    15    20    21   am
    16    21    22    2
    17    21    24    1
    18    24    25    1
    19    25    26   am
    20    26    27    2
    21    26    29    1
    22    29    30   ar
    23    30    31   ar
    24    31    32   ar
    25    32    33   ar
    26    33    35    1
    27    35    36    1
    28    35    37    1
    29    35    38    1
    30    33    34   ar
    31     3     4    1
    32     9    10    1
    33    10    11    1
    34    16    17   ar
    35    17    13   ar
    36    11     5    1
    37     4     1    1
    38    34    29   ar
    39     6    12    1
    40    20    23    1
    41    25    28    1
@<TRIPOS>MOLECULE
*****
 38 41 0 0 0
SMALL
GASTEIGER

@<TRIPOS>ATOM
      1 N         144.3043  142.5652  158.8614 N.3     1  UNL1       -0.2711
      2 C         142.9741  143.2178  159.0952 C.3     1  UNL1        0.0933
      3 C         143.1412  143.0285  160.5738 C.3     1  UNL1        0.1035
      4 C         144.4714  142.3759  160.3400 C.3     1  UNL1        0.0933
      5 C         146.7720  141.5822  155.2290 C.3     1  UNL1        0.1140
      6 O         146.7353  140.6936  154.0211 O.3     1  UNL1       -0.3821
      7 C         147.2590  142.6049  156.2122 C.3     1  UNL1        0.0331
      8 C         146.4365  142.9326  157.4230 C.3     1  UNL1        0.0187
      9 C         145.1269  142.2375  157.6505 C.3     1  UNL1        0.0578
     10 C         144.6399  141.2147  156.6674 C.3     1  UNL1        0.0187
     11 C         145.4624  140.8871  155.4566 C.3     1  UNL1        0.0331
     12 H         147.5342  140.8369  153.4899 H       1  UNL1        0.2107
     13 C         150.4405  142.1876  154.1148 C.ar    1  UNL1        0.0880
     14 N         149.6884  142.9393  153.0569 N.ar    1  UNL1       -0.2414
     15 C         148.2227  142.8040  153.3455 C.ar    1  UNL1        0.1034
     16 C         148.0688  141.9686  154.5818 C.ar    1  UNL1        0.0514
     17 S         149.4395  141.5877  155.0573 S.2     1  UNL1       -0.0728
     18 C         152.6533  141.0431  153.3774 C.3     1  UNL1        0.0073
     19 C         151.9317  142.0584  154.2131 C.3     1  UNL1        0.0526
     20 N         142.3187  143.3562  161.7846 N.am    1  UNL1       -0.3018
     21 C         142.8295  144.3411  162.7942 C.2     1  UNL1        0.2426
     22 O         144.1628  144.9982  162.5929 O.2     1  UNL1       -0.2733
     23 H         141.4436  142.9249  161.9167 H       1  UNL1        0.1495
     24 C         142.0070  144.6687  164.0050 C.3     1  UNL1        0.1759
     25 N         141.5750  143.5753  164.9365 N.am    1  UNL1       -0.2931
     26 C         140.3048  142.8225  164.6715 C.2     1  UNL1        0.2462
     27 O         139.4668  143.1632  163.4751 O.2     1  UNL1       -0.2701
     28 H         142.1250  143.3517  165.7218 H       1  UNL1        0.1502
     29 C         139.8728  141.7291  165.6030 C.ar    1  UNL1        0.0533
     30 C         139.0397  140.5922  165.0898 C.ar    1  UNL1        0.0045
     31 C         138.6077  139.4987  166.0214 C.ar    1  UNL1        0.0001
     32 C         139.0088  139.5422  167.4661 C.ar    1  UNL1        0.0039
     33 C         139.8419  140.6790  167.9793 C.ar    1  UNL1        0.0716
     34 C         140.2740  141.7725  167.0478 C.ar    1  UNL1        0.0084
     35 C         140.2431  140.7225  169.4240 C.3     1  UNL1        0.4186
     36 F         140.6443  140.7659  170.8687 F       1  UNL1       -0.1659
     37 F         140.8850  139.3737  169.2862 F       1  UNL1       -0.1659
     38 F         139.6012  142.0711  169.5616 F       1  UNL1       -0.1659
@<TRIPOS>BOND
     1    18    19    1
     2    19    13    1
     3    13    14   ar
     4    14    15   ar
     5    15    16   ar
     6    16     5    1
     7     5     6    1
     8     5     7    1
     9     7     8    1
    10     8     9    1
    11     9     1    1
    12     1     2    1
    13     2     3    1
    14     3    20    1
    15    20    21   am
    16    21    22    2
    17    21    24    1
    18    24    25    1
    19    25    26   am
    20    26    27    2
    21    26    29    1
    22    29    30   ar
    23    30    31   ar
    24    31    32   ar
    25    32    33   ar
    26    33    35    1
    27    35    36    1
    28    35    37    1
    29    35    38    1
    30    33    34   ar
    31     3     4    1
    32     9    10    1
    33    10    11    1
    34    16    17   ar
    35    17    13   ar
    36    11     5    1
    37     4     1    1
    38    34    29   ar
    39     6    12    1
    40    20    23    1
    41    25    28    1
