@<TRIPOS>MOLECULE
*****
 35 39 0 0 0
SMALL
GASTEIGER

@<TRIPOS>ATOM
      1 C         139.9574  141.3817  169.2297 C.ar    1  UNL1        0.1399
      2 C         139.1985  140.1929  168.7190 C.ar    1  UNL1        0.0357
      3 C         139.2495  139.8400  167.2619 C.ar    1  UNL1        0.0162
      4 C         140.0593  140.6759  166.3157 C.ar    1  UNL1        0.1484
      5 C         140.8182  141.8647  166.8265 C.ar    1  UNL1        0.0851
      6 C         140.7673  142.2176  168.2835 C.ar    1  UNL1        0.0545
      7 O         140.1103  140.3230  164.8587 O.3     1  UNL1       -0.4690
      8 C         139.3514  139.1342  164.3480 C.3     1  UNL1        0.2417
      9 C         138.5416  138.2983  165.2942 C.3     1  UNL1        0.0579
     10 C         138.4906  138.6512  166.7512 C.3     1  UNL1        0.0338
     11 N         141.6281  142.7006  165.8802 N.pl3   1  UNL1       -0.3022
     12 C         143.1220  142.5684  165.8531 C.3     1  UNL1        0.1082
     13 C         143.9319  143.4042  164.9068 C.3     1  UNL1        0.0938
     14 N         143.2478  144.3724  163.9877 N.3     1  UNL1       -0.2686
     15 C         144.0577  145.2083  163.0415 C.3     1  UNL1        0.0897
     16 C         141.7539  144.5046  164.0148 C.3     1  UNL1        0.0938
     17 C         140.9440  143.6687  164.9611 C.3     1  UNL1        0.1082
     18 C         139.4024  138.7813  162.8909 C.2     1  UNL1        0.2663
     19 O         138.5652  137.6545  162.3625 O.2     1  UNL1       -0.2709
     20 N         140.2906  139.5552  161.9624 N.am    1  UNL1       -0.2810
     21 H         140.8401  140.2948  162.3093 H       1  UNL1        0.1550
     22 C         140.3416  139.2023  160.5054 C.ar    1  UNL1        0.0505
     23 C         139.1966  139.5628  159.6059 C.ar    1  UNL1        0.0159
     24 C         139.2477  139.2099  158.1489 C.ar    1  UNL1        0.0158
     25 C         140.4436  138.4965  157.5914 C.ar    1  UNL1        0.0481
     26 C         141.5886  138.1361  158.4909 C.ar    1  UNL1        0.0158
     27 C         141.5376  138.4890  159.9479 C.ar    1  UNL1        0.0159
     28 N         140.4946  138.1437  156.1344 N.pl3   1  UNL1       -0.3028
     29 C         139.3535  137.4039  155.5015 C.3     1  UNL1        0.1231
     30 C         139.4045  137.0510  154.0445 C.3     1  UNL1        0.1636
     31 O         140.5967  137.4379  153.2204 O.3     1  UNL1       -0.3501
     32 C         141.7378  138.1777  153.8533 C.3     1  UNL1        0.1636
     33 C         141.6868  138.5305  155.3103 C.3     1  UNL1        0.1231
     34 C         141.1727  141.7947  171.4886 C.3     1  UNL1        0.2525
     35 O         139.9064  141.7346  170.6868 O.3     1  UNL1       -0.4714
@<TRIPOS>BOND
     1    34    35    1
     2    35     1    1
     3     1     2   ar
     4     2     3   ar
     5     3     4   ar
     6     4     5   ar
     7     5    11    1
     8    11    12    1
     9    12    13    1
    10    13    14    1
    11    14    15    1
    12    14    16    1
    13    16    17    1
    14     5     6   ar
    15     4     7    1
    16     7     8    1
    17     8    18    1
    18    18    19    2
    19    18    20   am
    20    20    22    1
    21    22    23   ar
    22    23    24   ar
    23    24    25   ar
    24    25    28    1
    25    28    29    1
    26    29    30    1
    27    30    31    1
    28    31    32    1
    29    32    33    1
    30    25    26   ar
    31    26    27   ar
    32     8     9    1
    33     9    10    1
    34     6     1   ar
    35    27    22   ar
    36    10     3    1
    37    17    11    1
    38    33    28    1
    39    20    21    1
@<TRIPOS>MOLECULE
*****
 35 39 0 0 0
SMALL
GASTEIGER

@<TRIPOS>ATOM
      1 C         142.5033  141.8962  168.5713 C.ar    1  UNL1        0.1399
      2 C         142.7398  140.4546  168.2310 C.ar    1  UNL1        0.0357
      3 C         142.4652  139.9568  166.8428 C.ar    1  UNL1        0.0162
      4 C         141.9541  140.9007  165.7950 C.ar    1  UNL1        0.1484
      5 C         141.7176  142.3424  166.1354 C.ar    1  UNL1        0.0851
      6 C         141.9922  142.8401  167.5235 C.ar    1  UNL1        0.0545
      7 O         141.6795  140.4030  164.4069 O.3     1  UNL1       -0.4690
      8 C         141.9161  138.9615  164.0666 C.3     1  UNL1        0.2417
      9 C         142.4272  138.0176  165.1144 C.3     1  UNL1        0.0579
     10 C         142.7017  138.5153  166.5025 C.3     1  UNL1        0.0338
     11 N         141.2065  143.2863  165.0876 N.pl3   1  UNL1       -0.3022
     12 C         139.7455  143.6204  165.0276 C.3     1  UNL1        0.1082
     13 C         139.2344  144.5643  163.9798 C.3     1  UNL1        0.0938
     14 N         140.1843  145.1741  162.9920 N.3     1  UNL1       -0.2686
     15 C         139.6732  146.1180  161.9443 C.3     1  UNL1        0.0897
     16 C         141.6455  144.8400  163.0520 C.3     1  UNL1        0.0938
     17 C         142.1566  143.8961  164.0998 C.3     1  UNL1        0.1082
     18 C         141.6415  138.4637  162.6784 C.2     1  UNL1        0.2663
     19 O         141.0193  137.1141  162.4750 O.2     1  UNL1       -0.2709
     20 N         141.9891  139.3156  161.4938 N.am    1  UNL1       -0.2810
     21 H         142.3975  140.2014  161.6273 H       1  UNL1        0.1550
     22 C         141.7146  138.8179  160.1057 C.ar    1  UNL1        0.0505
     23 C         142.8076  138.1636  159.3136 C.ar    1  UNL1        0.0159
     24 C         142.5329  137.6659  157.9254 C.ar    1  UNL1        0.0158
     25 C         141.1654  137.8226  157.3294 C.ar    1  UNL1        0.0481
     26 C         140.0725  138.4768  158.1214 C.ar    1  UNL1        0.0158
     27 C         140.3470  138.9745  159.5095 C.ar    1  UNL1        0.0159
     28 N         140.8909  137.3249  155.9413 N.pl3   1  UNL1       -0.3028
     29 C         141.9874  136.6826  155.1442 C.3     1  UNL1        0.1231
     30 C         141.7127  136.1849  153.7560 C.3     1  UNL1        0.1636
     31 O         140.3418  136.3295  153.1650 O.3     1  UNL1       -0.3501
     32 C         139.2453  136.9718  153.9620 C.3     1  UNL1        0.1636
     33 C         139.5198  137.4694  155.3501 C.3     1  UNL1        0.1231
     34 C         141.8682  142.0083  171.0881 C.3     1  UNL1        0.2525
     35 O         142.7778  142.3939  169.9594 O.3     1  UNL1       -0.4714
@<TRIPOS>BOND
     1    34    35    1
     2    35     1    1
     3     1     2   ar
     4     2     3   ar
     5     3     4   ar
     6     4     5   ar
     7     5    11    1
     8    11    12    1
     9    12    13    1
    10    13    14    1
    11    14    15    1
    12    14    16    1
    13    16    17    1
    14     5     6   ar
    15     4     7    1
    16     7     8    1
    17     8    18    1
    18    18    19    2
    19    18    20   am
    20    20    22    1
    21    22    23   ar
    22    23    24   ar
    23    24    25   ar
    24    25    28    1
    25    28    29    1
    26    29    30    1
    27    30    31    1
    28    31    32    1
    29    32    33    1
    30    25    26   ar
    31    26    27   ar
    32     8     9    1
    33     9    10    1
    34     6     1   ar
    35    27    22   ar
    36    10     3    1
    37    17    11    1
    38    33    28    1
    39    20    21    1
@<TRIPOS>MOLECULE
*****
 35 39 0 0 0
SMALL
GASTEIGER

@<TRIPOS>ATOM
      1 C         140.4144  141.5435  168.2631 C.ar    1  UNL1        0.1399
      2 C         141.7557  142.1572  167.9910 C.ar    1  UNL1        0.0357
      3 C         142.3608  142.0608  166.6217 C.ar    1  UNL1        0.0162
      4 C         141.6244  141.3508  165.5247 C.ar    1  UNL1        0.1484
      5 C         140.2830  140.7370  165.7968 C.ar    1  UNL1        0.0851
      6 C         139.6780  140.8334  167.1660 C.ar    1  UNL1        0.0545
      7 O         142.2294  141.2544  164.1555 O.3     1  UNL1       -0.4690
      8 C         143.5707  141.8681  163.8834 C.3     1  UNL1        0.2417
      9 C         144.3071  142.5782  164.9804 C.3     1  UNL1        0.0579
     10 C         143.7021  142.6746  166.3496 C.3     1  UNL1        0.0338
     11 N         139.5466  140.0269  164.6998 N.pl3   1  UNL1       -0.3022
     12 C         139.6416  138.5351  164.5762 C.3     1  UNL1        0.1082
     13 C         138.9053  137.8250  163.4791 C.3     1  UNL1        0.0938
     14 N         138.0739  138.6067  162.5057 N.3     1  UNL1       -0.2686
     15 C         137.3375  137.8966  161.4086 C.3     1  UNL1        0.0897
     16 C         137.9788  140.0986  162.6293 C.3     1  UNL1        0.0938
     17 C         138.7152  140.8087  163.7263 C.3     1  UNL1        0.1082
     18 C         144.1757  141.7718  162.5141 C.2     1  UNL1        0.2663
     19 O         145.6669  141.7710  162.3515 O.2     1  UNL1       -0.2709
     20 N         143.2896  141.6762  161.3077 N.am    1  UNL1       -0.2810
     21 H         142.3109  141.6767  161.4145 H       1  UNL1        0.1550
     22 C         143.8945  141.5799  159.9385 C.ar    1  UNL1        0.0505
     23 C         143.6788  140.3495  159.1081 C.ar    1  UNL1        0.0159
     24 C         144.2838  140.2532  157.7388 C.ar    1  UNL1        0.0158
     25 C         145.1045  141.3873  157.2001 C.ar    1  UNL1        0.0481
     26 C         145.3202  142.6177  158.0305 C.ar    1  UNL1        0.0158
     27 C         144.7153  142.7140  159.3996 C.ar    1  UNL1        0.0159
     28 N         145.7095  141.2909  155.8309 N.pl3   1  UNL1       -0.3028
     29 C         144.9298  140.6731  154.7082 C.3     1  UNL1        0.1231
     30 C         145.5349  140.5768  153.3390 C.3     1  UNL1        0.1636
     31 O         146.9195  141.0983  153.0925 O.3     1  UNL1       -0.3501
     32 C         147.6992  141.7161  154.2152 C.3     1  UNL1        0.1636
     33 C         147.0942  141.8124  155.5843 C.3     1  UNL1        0.1231
     34 C         139.9776  142.8924  170.4402 C.3     1  UNL1        0.2525
     35 O         139.8093  141.6398  169.6323 O.3     1  UNL1       -0.4714
@<TRIPOS>BOND
     1    34    35    1
     2    35     1    1
     3     1     2   ar
     4     2     3   ar
     5     3     4   ar
     6     4     5   ar
     7     5    11    1
     8    11    12    1
     9    12    13    1
    10    13    14    1
    11    14    15    1
    12    14    16    1
    13    16    17    1
    14     5     6   ar
    15     4     7    1
    16     7     8    1
    17     8    18    1
    18    18    19    2
    19    18    20   am
    20    20    22    1
    21    22    23   ar
    22    23    24   ar
    23    24    25   ar
    24    25    28    1
    25    28    29    1
    26    29    30    1
    27    30    31    1
    28    31    32    1
    29    32    33    1
    30    25    26   ar
    31    26    27   ar
    32     8     9    1
    33     9    10    1
    34     6     1   ar
    35    27    22   ar
    36    10     3    1
    37    17    11    1
    38    33    28    1
    39    20    21    1
@<TRIPOS>MOLECULE
*****
 35 39 0 0 0
SMALL
GASTEIGER

@<TRIPOS>ATOM
      1 C         140.5033  140.5125  167.4336 C.ar    1  UNL1        0.1399
      2 C         139.9971  141.9118  167.2445 C.ar    1  UNL1        0.0357
      3 C         140.0153  142.5381  165.8815 C.ar    1  UNL1        0.0162
      4 C         140.5396  141.7651  164.7079 C.ar    1  UNL1        0.1484
      5 C         141.0458  140.3658  164.8971 C.ar    1  UNL1        0.0851
      6 C         141.0276  139.7395  166.2600 C.ar    1  UNL1        0.0545
      7 O         140.5578  142.3913  163.3450 O.3     1  UNL1       -0.4690
      8 C         140.0517  143.7906  163.1558 C.3     1  UNL1        0.2417
      9 C         139.5274  144.5636  164.3295 C.3     1  UNL1        0.0579
     10 C         139.5092  143.9374  165.6924 C.3     1  UNL1        0.0338
     11 N         141.5701  139.5927  163.7234 N.pl3   1  UNL1       -0.3022
     12 C         143.0392  139.5937  163.4205 C.3     1  UNL1        0.1082
     13 C         143.5635  138.8207  162.2469 C.3     1  UNL1        0.0938
     14 N         142.6188  138.0467  161.3761 N.3     1  UNL1       -0.2686
     15 C         143.1431  137.2737  160.2024 C.3     1  UNL1        0.0897
     16 C         141.1496  138.0457  161.6789 C.3     1  UNL1        0.0938
     17 C         140.6253  138.8187  162.8526 C.3     1  UNL1        0.1082
     18 C         140.0699  144.4169  161.7929 C.2     1  UNL1        0.2663
     19 O         139.3795  145.7282  161.5608 O.2     1  UNL1       -0.2709
     20 N         140.7785  143.7319  160.6621 N.am    1  UNL1       -0.2810
     21 H         141.2317  142.8713  160.8145 H       1  UNL1        0.1550
     22 C         140.7967  144.3582  159.2993 C.ar    1  UNL1        0.0505
     23 C         139.7227  144.0253  158.3065 C.ar    1  UNL1        0.0159
     24 C         139.7410  144.6516  156.9435 C.ar    1  UNL1        0.0158
     25 C         140.8332  145.6108  156.5735 C.ar    1  UNL1        0.0481
     26 C         141.9072  145.9437  157.5663 C.ar    1  UNL1        0.0158
     27 C         141.8890  145.3174  158.9292 C.ar    1  UNL1        0.0159
     28 N         140.8514  146.2370  155.2106 N.pl3   1  UNL1       -0.3028
     29 C         140.1156  147.5209  154.9653 C.3     1  UNL1        0.1231
     30 C         140.1339  148.1472  153.6024 C.3     1  UNL1        0.1636
     31 O         140.8879  147.4895  152.4848 O.3     1  UNL1       -0.3501
     32 C         141.6237  146.2056  152.7302 C.3     1  UNL1        0.1636
     33 C         141.6055  145.5793  154.0930 C.3     1  UNL1        0.1231
     34 C         139.5120  140.3692  169.8309 C.3     1  UNL1        0.2525
     35 O         140.4851  139.8862  168.7966 O.3     1  UNL1       -0.4714
@<TRIPOS>BOND
     1    34    35    1
     2    35     1    1
     3     1     2   ar
     4     2     3   ar
     5     3     4   ar
     6     4     5   ar
     7     5    11    1
     8    11    12    1
     9    12    13    1
    10    13    14    1
    11    14    15    1
    12    14    16    1
    13    16    17    1
    14     5     6   ar
    15     4     7    1
    16     7     8    1
    17     8    18    1
    18    18    19    2
    19    18    20   am
    20    20    22    1
    21    22    23   ar
    22    23    24   ar
    23    24    25   ar
    24    25    28    1
    25    28    29    1
    26    29    30    1
    27    30    31    1
    28    31    32    1
    29    32    33    1
    30    25    26   ar
    31    26    27   ar
    32     8     9    1
    33     9    10    1
    34     6     1   ar
    35    27    22   ar
    36    10     3    1
    37    17    11    1
    38    33    28    1
    39    20    21    1
@<TRIPOS>MOLECULE
*****
 35 39 0 0 0
SMALL
GASTEIGER

@<TRIPOS>ATOM
      1 C         142.2418  140.5296  168.4158 C.ar    1  UNL1        0.1399
      2 C         143.1530  141.6490  168.0076 C.ar    1  UNL1        0.0357
      3 C         143.1543  142.1355  166.5886 C.ar    1  UNL1        0.0162
      4 C         142.2445  141.5024  165.5779 C.ar    1  UNL1        0.1484
      5 C         141.3333  140.3830  165.9862 C.ar    1  UNL1        0.0851
      6 C         141.3320  139.8966  167.4052 C.ar    1  UNL1        0.0545
      7 O         142.2457  141.9888  164.1590 O.3     1  UNL1       -0.4690
      8 C         143.1569  143.1082  163.7507 C.3     1  UNL1        0.2417
      9 C         144.0668  143.7412  164.7614 C.3     1  UNL1        0.0579
     10 C         144.0655  143.2549  166.1803 C.3     1  UNL1        0.0338
     11 N         140.4234  139.7500  164.9756 N.pl3   1  UNL1       -0.3022
     12 C         139.1506  140.4369  164.5781 C.3     1  UNL1        0.1082
     13 C         138.2407  139.8039  163.5674 C.3     1  UNL1        0.0938
     14 N         138.6037  138.4839  162.9542 N.3     1  UNL1       -0.2686
     15 C         137.6938  137.8509  161.9436 C.3     1  UNL1        0.0897
     16 C         139.8766  137.7970  163.3517 C.3     1  UNL1        0.0938
     17 C         140.7864  138.4300  164.3624 C.3     1  UNL1        0.1082
     18 C         143.1582  143.5947  162.3318 C.2     1  UNL1        0.2663
     19 O         144.3531  144.3211  161.7890 O.2     1  UNL1       -0.2709
     20 N         141.9646  143.3547  161.4555 N.am    1  UNL1       -0.2810
     21 H         141.1804  142.8779  161.8118 H       1  UNL1        0.1550
     22 C         141.9659  143.8410  160.0366 C.ar    1  UNL1        0.0505
     23 C         142.7610  143.1118  158.9945 C.ar    1  UNL1        0.0159
     24 C         142.7622  143.5982  157.5755 C.ar    1  UNL1        0.0158
     25 C         141.9684  144.8139  157.1987 C.ar    1  UNL1        0.0481
     26 C         141.1734  145.5432  158.2409 C.ar    1  UNL1        0.0158
     27 C         141.1721  145.0568  159.6598 C.ar    1  UNL1        0.0159
     28 N         141.9697  145.3003  155.7798 N.pl3   1  UNL1       -0.3028
     29 C         143.0498  144.8596  154.8369 C.3     1  UNL1        0.1231
     30 C         143.0511  145.3461  153.4179 C.3     1  UNL1        0.1636
     31 O         141.9722  146.2731  152.9419 O.3     1  UNL1       -0.3501
     32 C         140.8921  146.7138  153.8848 C.3     1  UNL1        0.1636
     33 C         140.8908  146.2274  155.3038 C.3     1  UNL1        0.1231
     34 C         141.4209  140.7541  170.8706 C.3     1  UNL1        0.2525
     35 O         142.2405  140.0432  169.8348 O.3     1  UNL1       -0.4714
@<TRIPOS>BOND
     1    34    35    1
     2    35     1    1
     3     1     2   ar
     4     2     3   ar
     5     3     4   ar
     6     4     5   ar
     7     5    11    1
     8    11    12    1
     9    12    13    1
    10    13    14    1
    11    14    15    1
    12    14    16    1
    13    16    17    1
    14     5     6   ar
    15     4     7    1
    16     7     8    1
    17     8    18    1
    18    18    19    2
    19    18    20   am
    20    20    22    1
    21    22    23   ar
    22    23    24   ar
    23    24    25   ar
    24    25    28    1
    25    28    29    1
    26    29    30    1
    27    30    31    1
    28    31    32    1
    29    32    33    1
    30    25    26   ar
    31    26    27   ar
    32     8     9    1
    33     9    10    1
    34     6     1   ar
    35    27    22   ar
    36    10     3    1
    37    17    11    1
    38    33    28    1
    39    20    21    1
@<TRIPOS>MOLECULE
*****
 35 39 0 0 0
SMALL
GASTEIGER

@<TRIPOS>ATOM
      1 C         143.9582  143.2201  161.7824 C.ar    1  UNL1        0.1399
      2 C         144.3512  142.8951  160.3718 C.ar    1  UNL1        0.0357
      3 C         143.8474  141.6399  159.7231 C.ar    1  UNL1        0.0162
      4 C         142.9505  140.7098  160.4850 C.ar    1  UNL1        0.1484
      5 C         142.5575  141.0349  161.8957 C.ar    1  UNL1        0.0851
      6 C         143.0613  142.2901  162.5443 C.ar    1  UNL1        0.0545
      7 O         142.4467  139.4547  159.8364 O.3     1  UNL1       -0.4690
      8 C         142.8397  139.1296  158.4258 C.3     1  UNL1        0.2417
      9 C         143.7366  140.0597  157.6639 C.3     1  UNL1        0.0579
     10 C         144.2404  141.3148  158.3125 C.3     1  UNL1        0.0338
     11 N         141.6606  140.1049  162.6577 N.pl3   1  UNL1       -0.3022
     12 C         140.1853  140.3685  162.7194 C.3     1  UNL1        0.1082
     13 C         139.2884  139.4385  163.4814 C.3     1  UNL1        0.0938
     14 N         139.8669  138.2447  164.1816 N.3     1  UNL1       -0.2686
     15 C         138.9700  137.3147  164.9436 C.3     1  UNL1        0.0897
     16 C         141.3423  137.9810  164.1199 C.3     1  UNL1        0.0938
     17 C         142.2391  138.9111  163.3579 C.3     1  UNL1        0.1082
     18 C         142.3359  137.8744  157.7771 C.2     1  UNL1        0.2663
     19 O         140.8650  137.5815  157.7520 O.2     1  UNL1       -0.2709
     20 N         143.3030  136.9122  157.1536 N.am    1  UNL1       -0.2810
     21 H         144.2684  137.1045  157.1701 H       1  UNL1        0.1550
     22 C         142.7993  135.6571  156.5049 C.ar    1  UNL1        0.0505
     23 C         143.1372  134.3201  157.0951 C.ar    1  UNL1        0.0159
     24 C         142.6334  133.0649  156.4464 C.ar    1  UNL1        0.0158
     25 C         141.7917  133.1467  155.2075 C.ar    1  UNL1        0.0481
     26 C         141.4538  134.4837  154.6173 C.ar    1  UNL1        0.0158
     27 C         141.9575  135.7388  155.2660 C.ar    1  UNL1        0.0159
     28 N         141.2880  131.8916  154.5589 N.pl3   1  UNL1       -0.3028
     29 C         141.4383  130.5733  155.2585 C.3     1  UNL1        0.1231
     30 C         140.9345  129.3182  154.6098 C.3     1  UNL1        0.1636
     31 O         140.2804  129.3813  153.2614 O.3     1  UNL1       -0.3501
     32 C         140.1301  130.6996  152.5618 C.3     1  UNL1        0.1636
     33 C         140.6338  131.9547  153.2104 C.3     1  UNL1        0.1231
     34 C         143.6902  145.1005  163.5551 C.3     1  UNL1        0.2525
     35 O         144.4620  144.4753  162.4310 O.3     1  UNL1       -0.4714
@<TRIPOS>BOND
     1    34    35    1
     2    35     1    1
     3     1     2   ar
     4     2     3   ar
     5     3     4   ar
     6     4     5   ar
     7     5    11    1
     8    11    12    1
     9    12    13    1
    10    13    14    1
    11    14    15    1
    12    14    16    1
    13    16    17    1
    14     5     6   ar
    15     4     7    1
    16     7     8    1
    17     8    18    1
    18    18    19    2
    19    18    20   am
    20    20    22    1
    21    22    23   ar
    22    23    24   ar
    23    24    25   ar
    24    25    28    1
    25    28    29    1
    26    29    30    1
    27    30    31    1
    28    31    32    1
    29    32    33    1
    30    25    26   ar
    31    26    27   ar
    32     8     9    1
    33     9    10    1
    34     6     1   ar
    35    27    22   ar
    36    10     3    1
    37    17    11    1
    38    33    28    1
    39    20    21    1
@<TRIPOS>MOLECULE
*****
 35 39 0 0 0
SMALL
GASTEIGER

@<TRIPOS>ATOM
      1 C         140.0952  144.0324  160.2333 C.ar    1  UNL1        0.1399
      2 C         140.4779  143.8691  158.7922 C.ar    1  UNL1        0.0357
      3 C         140.9783  142.5454  158.2945 C.ar    1  UNL1        0.0162
      4 C         141.0959  141.3852  159.2379 C.ar    1  UNL1        0.1484
      5 C         140.7132  141.5486  160.6791 C.ar    1  UNL1        0.0851
      6 C         140.2128  142.8722  161.1767 C.ar    1  UNL1        0.0545
      7 O         141.5963  140.0616  158.7402 O.3     1  UNL1       -0.4690
      8 C         141.9791  139.8983  157.2992 C.3     1  UNL1        0.2417
      9 C         141.8614  141.0585  156.3557 C.3     1  UNL1        0.0579
     10 C         141.3611  142.3821  156.8534 C.3     1  UNL1        0.0338
     11 N         140.8308  140.3884  161.6225 N.pl3   1  UNL1       -0.3022
     12 C         142.0200  140.2771  162.5298 C.3     1  UNL1        0.1082
     13 C         142.1376  139.1168  163.4732 C.3     1  UNL1        0.0938
     14 N         141.0660  138.0679  163.5093 N.3     1  UNL1       -0.2686
     15 C         141.1837  136.9077  164.4527 C.3     1  UNL1        0.0897
     16 C         139.8767  138.1792  162.6019 C.3     1  UNL1        0.0938
     17 C         139.7591  139.3394  161.6585 C.3     1  UNL1        0.1082
     18 C         142.4795  138.5746  156.8014 C.2     1  UNL1        0.2663
     19 O         143.8622  138.4619  156.2312 O.2     1  UNL1       -0.2709
     20 N         141.5970  137.3638  156.8739 N.am    1  UNL1       -0.2810
     21 H         140.6894  137.4379  157.2481 H       1  UNL1        0.1550
     22 C         142.0973  136.0403  156.3762 C.ar    1  UNL1        0.0505
     23 C         141.5146  135.4378  155.1322 C.ar    1  UNL1        0.0159
     24 C         142.0150  134.1141  154.6345 C.ar    1  UNL1        0.0158
     25 C         143.0981  133.3930  155.3808 C.ar    1  UNL1        0.0481
     26 C         143.6808  133.9955  156.6247 C.ar    1  UNL1        0.0158
     27 C         143.1805  135.3191  157.1224 C.ar    1  UNL1        0.0159
     28 N         143.5984  132.0695  154.8831 N.pl3   1  UNL1       -0.3028
     29 C         144.4449  131.2058  155.7705 C.3     1  UNL1        0.1231
     30 C         144.9453  129.8821  155.2727 C.3     1  UNL1        0.1636
     31 O         144.5991  129.4222  153.8876 O.3     1  UNL1       -0.3501
     32 C         143.7526  130.2859  153.0002 C.3     1  UNL1        0.1636
     33 C         143.2522  131.6095  153.4979 C.3     1  UNL1        0.1231
     34 C         140.0464  145.8756  162.0638 C.3     1  UNL1        0.2525
     35 O         139.5948  145.3560  160.7311 O.3     1  UNL1       -0.4714
@<TRIPOS>BOND
     1    34    35    1
     2    35     1    1
     3     1     2   ar
     4     2     3   ar
     5     3     4   ar
     6     4     5   ar
     7     5    11    1
     8    11    12    1
     9    12    13    1
    10    13    14    1
    11    14    15    1
    12    14    16    1
    13    16    17    1
    14     5     6   ar
    15     4     7    1
    16     7     8    1
    17     8    18    1
    18    18    19    2
    19    18    20   am
    20    20    22    1
    21    22    23   ar
    22    23    24   ar
    23    24    25   ar
    24    25    28    1
    25    28    29    1
    26    29    30    1
    27    30    31    1
    28    31    32    1
    29    32    33    1
    30    25    26   ar
    31    26    27   ar
    32     8     9    1
    33     9    10    1
    34     6     1   ar
    35    27    22   ar
    36    10     3    1
    37    17    11    1
    38    33    28    1
    39    20    21    1
@<TRIPOS>MOLECULE
*****
 35 39 0 0 0
SMALL
GASTEIGER

@<TRIPOS>ATOM
      1 C         141.9952  143.6830  159.4405 C.ar    1  UNL1        0.1399
      2 C         142.4604  143.3338  158.0579 C.ar    1  UNL1        0.0357
      3 C         142.6870  141.8992  157.6829 C.ar    1  UNL1        0.0162
      4 C         142.4484  140.8139  158.6905 C.ar    1  UNL1        0.1484
      5 C         141.9832  141.1632  160.0731 C.ar    1  UNL1        0.0851
      6 C         141.7566  142.5978  160.4481 C.ar    1  UNL1        0.0545
      7 O         142.6750  139.3793  158.3155 O.3     1  UNL1       -0.4690
      8 C         143.1402  139.0301  156.9329 C.3     1  UNL1        0.2417
      9 C         143.3788  140.1153  155.9253 C.3     1  UNL1        0.0579
     10 C         143.1522  141.5499  156.3003 C.3     1  UNL1        0.0338
     11 N         141.7446  140.0779  161.0807 N.pl3   1  UNL1       -0.3022
     12 C         142.8040  139.7443  162.0888 C.3     1  UNL1        0.1082
     13 C         142.5654  138.6590  163.0964 C.3     1  UNL1        0.0938
     14 N         141.2673  137.9074  163.0958 N.3     1  UNL1       -0.2686
     15 C         141.0287  136.8221  164.1034 C.3     1  UNL1        0.0897
     16 C         140.2078  138.2409  162.0877 C.3     1  UNL1        0.0938
     17 C         140.4465  139.3262  161.0801 C.3     1  UNL1        0.1082
     18 C         143.3668  137.5954  156.5578 C.2     1  UNL1        0.2663
     19 O         144.5267  137.2233  155.6825 O.2     1  UNL1       -0.2709
     20 N         142.4336  136.5330  157.0582 N.am    1  UNL1       -0.2810
     21 H         141.6724  136.7773  157.6327 H       1  UNL1        0.1550
     22 C         142.6602  135.0985  156.6832 C.ar    1  UNL1        0.0505
     23 C         143.6311  134.2635  157.4642 C.ar    1  UNL1        0.0159
     24 C         143.8577  132.8288  157.0891 C.ar    1  UNL1        0.0158
     25 C         143.1133  132.2293  155.9331 C.ar    1  UNL1        0.0481
     26 C         142.1423  133.0643  155.1521 C.ar    1  UNL1        0.0158
     27 C         141.9157  134.4989  155.5271 C.ar    1  UNL1        0.0159
     28 N         143.3399  130.7947  155.5581 N.pl3   1  UNL1       -0.3028
     29 C         142.1692  129.8831  155.3382 C.3     1  UNL1        0.1231
     30 C         142.3958  128.4485  154.9632 C.3     1  UNL1        0.1636
     31 O         143.7931  127.9256  154.8081 O.3     1  UNL1       -0.3501
     32 C         144.9638  128.8372  155.0280 C.3     1  UNL1        0.1636
     33 C         144.7372  130.2718  155.4030 C.3     1  UNL1        0.1231
     34 C         140.6587  145.4804  160.7571 C.3     1  UNL1        0.2525
     35 O         141.7686  145.1177  159.8155 O.3     1  UNL1       -0.4714
@<TRIPOS>BOND
     1    34    35    1
     2    35     1    1
     3     1     2   ar
     4     2     3   ar
     5     3     4   ar
     6     4     5   ar
     7     5    11    1
     8    11    12    1
     9    12    13    1
    10    13    14    1
    11    14    15    1
    12    14    16    1
    13    16    17    1
    14     5     6   ar
    15     4     7    1
    16     7     8    1
    17     8    18    1
    18    18    19    2
    19    18    20   am
    20    20    22    1
    21    22    23   ar
    22    23    24   ar
    23    24    25   ar
    24    25    28    1
    25    28    29    1
    26    29    30    1
    27    30    31    1
    28    31    32    1
    29    32    33    1
    30    25    26   ar
    31    26    27   ar
    32     8     9    1
    33     9    10    1
    34     6     1   ar
    35    27    22   ar
    36    10     3    1
    37    17    11    1
    38    33    28    1
    39    20    21    1
@<TRIPOS>MOLECULE
*****
 35 39 0 0 0
SMALL
GASTEIGER

@<TRIPOS>ATOM
      1 C         139.1897  146.5924  156.3129 C.ar    1  UNL1        0.1399
      2 C         138.4993  145.5878  155.4387 C.ar    1  UNL1        0.0357
      3 C         138.8068  144.1271  155.5875 C.ar    1  UNL1        0.0162
      4 C         139.8046  143.6712  156.6104 C.ar    1  UNL1        0.1484
      5 C         140.4950  144.6758  157.4846 C.ar    1  UNL1        0.0851
      6 C         140.1875  146.1364  157.3358 C.ar    1  UNL1        0.0545
      7 O         140.1121  142.2106  156.7592 O.3     1  UNL1       -0.4690
      8 C         139.4217  141.2060  155.8851 C.3     1  UNL1        0.2417
      9 C         138.4239  141.6620  154.8622 C.3     1  UNL1        0.0579
     10 C         138.1164  143.1225  154.7134 C.3     1  UNL1        0.0338
     11 N         141.4929  144.2199  158.5075 N.pl3   1  UNL1       -0.3022
     12 C         142.7603  143.5468  158.0709 C.3     1  UNL1        0.1082
     13 C         143.7581  143.0909  159.0938 C.3     1  UNL1        0.0938
     14 N         143.4886  143.3079  160.5533 N.3     1  UNL1       -0.2686
     15 C         144.4864  142.8520  161.5763 C.3     1  UNL1        0.0897
     16 C         142.2211  143.9810  160.9900 C.3     1  UNL1        0.0938
     17 C         141.2233  144.4370  159.9671 C.3     1  UNL1        0.1082
     18 C         139.7292  139.7454  156.0339 C.2     1  UNL1        0.2663
     19 O         138.8133  138.8634  156.8296 O.2     1  UNL1       -0.2709
     20 N         140.9526  139.1668  155.3869 N.am    1  UNL1       -0.2810
     21 H         141.5537  139.7457  154.8646 H       1  UNL1        0.1550
     22 C         141.2601  137.7062  155.5356 C.ar    1  UNL1        0.0505
     23 C         140.6271  136.7086  154.6115 C.ar    1  UNL1        0.0159
     24 C         140.9346  135.2480  154.7603 C.ar    1  UNL1        0.0158
     25 C         141.8751  134.7851  155.8331 C.ar    1  UNL1        0.0481
     26 C         142.5081  135.7827  156.7573 C.ar    1  UNL1        0.0158
     27 C         142.2006  137.2432  156.6085 C.ar    1  UNL1        0.0159
     28 N         142.1826  133.3245  155.9819 N.pl3   1  UNL1       -0.3028
     29 C         143.2347  132.8745  156.9517 C.3     1  UNL1        0.1231
     30 C         143.5422  131.4139  157.1004 C.3     1  UNL1        0.1636
     31 O         142.7976  130.4033  156.2793 O.3     1  UNL1       -0.3501
     32 C         141.7455  130.8533  155.3094 C.3     1  UNL1        0.1636
     33 C         141.4380  132.3138  155.1607 C.3     1  UNL1        0.1231
     34 C         139.2450  148.7706  154.8978 C.3     1  UNL1        0.2525
     35 O         138.8822  148.0530  156.1641 O.3     1  UNL1       -0.4714
@<TRIPOS>BOND
     1    34    35    1
     2    35     1    1
     3     1     2   ar
     4     2     3   ar
     5     3     4   ar
     6     4     5   ar
     7     5    11    1
     8    11    12    1
     9    12    13    1
    10    13    14    1
    11    14    15    1
    12    14    16    1
    13    16    17    1
    14     5     6   ar
    15     4     7    1
    16     7     8    1
    17     8    18    1
    18    18    19    2
    19    18    20   am
    20    20    22    1
    21    22    23   ar
    22    23    24   ar
    23    24    25   ar
    24    25    28    1
    25    28    29    1
    26    29    30    1
    27    30    31    1
    28    31    32    1
    29    32    33    1
    30    25    26   ar
    31    26    27   ar
    32     8     9    1
    33     9    10    1
    34     6     1   ar
    35    27    22   ar
    36    10     3    1
    37    17    11    1
    38    33    28    1
    39    20    21    1
