@<TRIPOS>MOLECULE
*****
 22 24 0 0 0
SMALL
GASTEIGER

@<TRIPOS>ATOM
      1 C         139.7068  140.4723  168.0207 C.2     1  UNL1        0.2487
      2 O         138.8935  139.4601  168.7717 O.2     1  UNL1       -0.2699
      3 N         139.4604  140.6967  166.5582 N.am    1  UNL1       -0.2763
      4 C         142.1246  140.6628  168.9524 C.ar    1  UNL1       -0.0178
      5 C         143.1842  141.4507  169.6640 C.ar    1  UNL1       -0.0041
      6 C         142.8856  142.8361  170.1556 C.ar    1  UNL1       -0.0003
      7 C         141.5275  143.4335  169.9356 C.ar    1  UNL1        0.0001
      8 C         140.4679  142.6456  169.2240 C.ar    1  UNL1        0.0042
      9 C         140.7665  141.2603  168.7324 C.ar    1  UNL1        0.0496
     10 C         143.0465  139.0787  167.1111 C.3     1  UNL1        0.0050
     11 C         142.4232  139.2775  168.4608 C.3     1  UNL1        0.0265
     12 C         140.2737  141.7090  165.8073 C.3     1  UNL1        0.0927
     13 C         141.5649  141.4463  165.0905 C.3     1  UNL1        0.0383
     14 C         142.0278  142.7366  164.4815 C.3     1  UNL1        0.0704
     15 N         141.0227  143.7967  164.8220 N.3     1  UNL1       -0.2960
     16 C         139.9386  143.1616  165.6414 C.3     1  UNL1        0.0887
     17 H         140.6268  144.1860  163.9663 H       1  UNL1        0.1233
     18 C         138.4008  139.9088  165.8466 C.3     1  UNL1        0.0936
     19 C         138.7810  138.9648  164.7447 C.3     1  UNL1        0.0199
     20 C         139.5501  137.6793  164.6675 C.3     1  UNL1        0.0017
     21 C         139.3187  137.6298  163.1863 C.3     1  UNL1        0.0001
     22 C         138.5497  138.9153  163.2635 C.3     1  UNL1        0.0017
@<TRIPOS>BOND
     1    10    11    1
     2    11     4    1
     3     4     5   ar
     4     5     6   ar
     5     6     7   ar
     6     7     8   ar
     7     8     9   ar
     8     9     1    1
     9     1     2    2
    10     1     3   am
    11     3    18    1
    12    18    19    1
    13    19    20    1
    14    20    21    1
    15    21    22    1
    16    12     3    1
    17    12    13    1
    18    13    14    1
    19    14    15    1
    20    15    16    1
    21     9     4   ar
    22    22    19    1
    23    16    12    1
    24    15    17    1
@<TRIPOS>MOLECULE
*****
 22 24 0 0 0
SMALL
GASTEIGER

@<TRIPOS>ATOM
      1 C         143.1605  138.5271  166.5252 C.2     1  UNL1        0.2487
      2 O         144.1370  137.6111  167.2015 O.2     1  UNL1       -0.2699
      3 N         142.4909  139.6185  167.3065 N.am    1  UNL1       -0.2763
      4 C         143.7782  138.9214  164.0325 C.ar    1  UNL1       -0.0178
      5 C         143.4713  138.7460  162.5748 C.ar    1  UNL1       -0.0041
      6 C         142.2401  138.0010  162.1518 C.ar    1  UNL1       -0.0003
      7 C         141.3156  137.4314  163.1866 C.ar    1  UNL1        0.0001
      8 C         141.6225  137.6067  164.6444 C.ar    1  UNL1        0.0042
      9 C         142.8537  138.3518  165.0673 C.ar    1  UNL1        0.0496
     10 C         145.3513  140.9772  163.8112 C.3     1  UNL1        0.0050
     11 C         145.0095  139.6664  164.4555 C.3     1  UNL1        0.0265
     12 C         141.5145  140.5345  166.6301 C.3     1  UNL1        0.0927
     13 C         140.0234  140.3730  166.6088 C.3     1  UNL1        0.0383
     14 C         139.4450  141.5115  165.8218 C.3     1  UNL1        0.0704
     15 N         140.5787  142.3767  165.3568 N.3     1  UNL1       -0.2960
     16 C         141.8577  141.7728  165.8564 C.3     1  UNL1        0.0887
     17 H         140.4713  143.3191  165.7317 H       1  UNL1        0.1233
     18 C         142.7977  139.7938  168.7644 C.3     1  UNL1        0.0936
     19 C         142.7066  141.1532  169.3917 C.3     1  UNL1        0.0199
     20 C         141.6286  141.9300  170.0878 C.3     1  UNL1        0.0017
     21 C         142.5777  143.0758  170.2790 C.3     1  UNL1        0.0001
     22 C         143.6557  142.2989  169.5829 C.3     1  UNL1        0.0017
@<TRIPOS>BOND
     1    10    11    1
     2    11     4    1
     3     4     5   ar
     4     5     6   ar
     5     6     7   ar
     6     7     8   ar
     7     8     9   ar
     8     9     1    1
     9     1     2    2
    10     1     3   am
    11     3    18    1
    12    18    19    1
    13    19    20    1
    14    20    21    1
    15    21    22    1
    16    12     3    1
    17    12    13    1
    18    13    14    1
    19    14    15    1
    20    15    16    1
    21     9     4   ar
    22    22    19    1
    23    16    12    1
    24    15    17    1
@<TRIPOS>MOLECULE
*****
 22 24 0 0 0
SMALL
GASTEIGER

@<TRIPOS>ATOM
      1 C         141.3031  140.9724  164.3779 C.2     1  UNL1        0.2487
      2 O         140.4290  140.9386  163.1594 O.2     1  UNL1       -0.2699
      3 N         140.6950  140.8276  165.7414 N.am    1  UNL1       -0.2763
      4 C         143.3728  142.5301  164.1779 C.ar    1  UNL1       -0.0178
      5 C         144.8551  142.7086  164.0329 C.ar    1  UNL1       -0.0041
      6 C         145.7499  141.5081  163.9428 C.ar    1  UNL1       -0.0003
      7 C         145.1624  140.1290  163.9978 C.ar    1  UNL1        0.0001
      8 C         143.6802  139.9505  164.1428 C.ar    1  UNL1        0.0042
      9 C         142.7854  141.1510  164.2329 C.ar    1  UNL1        0.0496
     10 C         142.9952  145.0826  163.8749 C.3     1  UNL1        0.0050
     11 C         142.4781  143.7306  164.2680 C.3     1  UNL1        0.0265
     12 C         141.5691  140.8614  166.9600 C.3     1  UNL1        0.0927
     13 C         142.0237  142.0933  167.6851 C.3     1  UNL1        0.0383
     14 C         142.8776  141.6625  168.8406 C.3     1  UNL1        0.0704
     15 N         142.9509  140.1643  168.8296 N.3     1  UNL1       -0.2960
     16 C         142.1421  139.6692  167.6673 C.3     1  UNL1        0.0887
     17 H         142.5698  139.7927  169.6997 H       1  UNL1        0.1233
     18 C         139.2127  140.6490  165.8865 C.3     1  UNL1        0.0936
     19 C         138.6397  139.2794  166.1005 C.3     1  UNL1        0.0199
     20 C         138.7475  137.9619  165.3916 C.3     1  UNL1        0.0017
     21 C         137.8293  137.3425  166.4032 C.3     1  UNL1        0.0001
     22 C         137.7215  138.6601  167.1121 C.3     1  UNL1        0.0017
@<TRIPOS>BOND
     1    10    11    1
     2    11     4    1
     3     4     5   ar
     4     5     6   ar
     5     6     7   ar
     6     7     8   ar
     7     8     9   ar
     8     9     1    1
     9     1     2    2
    10     1     3   am
    11     3    18    1
    12    18    19    1
    13    19    20    1
    14    20    21    1
    15    21    22    1
    16    12     3    1
    17    12    13    1
    18    13    14    1
    19    14    15    1
    20    15    16    1
    21     9     4   ar
    22    22    19    1
    23    16    12    1
    24    15    17    1
@<TRIPOS>MOLECULE
*****
 22 24 0 0 0
SMALL
GASTEIGER

@<TRIPOS>ATOM
      1 C         141.8997  139.6046  167.1159 C.2     1  UNL1        0.2487
      2 O         142.8864  139.3020  168.2043 O.2     1  UNL1       -0.2699
      3 N         140.5699  140.2096  167.4559 N.am    1  UNL1       -0.2763
      4 C         143.0822  140.2624  164.8980 C.ar    1  UNL1       -0.0178
      5 C         143.4253  139.9599  163.4695 C.ar    1  UNL1       -0.0041
      6 C         142.9288  138.6971  162.8302 C.ar    1  UNL1       -0.0003
      7 C         142.0893  137.7367  163.6194 C.ar    1  UNL1        0.0001
      8 C         141.7463  138.0392  165.0479 C.ar    1  UNL1        0.0042
      9 C         142.2428  139.3021  165.6872 C.ar    1  UNL1        0.0496
     10 C         142.9884  142.8471  165.1444 C.3     1  UNL1        0.0050
     11 C         143.5787  141.5253  165.5373 C.3     1  UNL1        0.0265
     12 C         139.5832  140.5121  166.3674 C.3     1  UNL1        0.0927
     13 C         139.5348  141.7653  165.5445 C.3     1  UNL1        0.0383
     14 C         138.3933  141.6423  164.5793 C.3     1  UNL1        0.0704
     15 N         137.7361  140.3131  164.8056 N.3     1  UNL1       -0.2960
     16 C         138.4715  139.6146  165.9107 C.3     1  UNL1        0.0887
     17 H         137.7813  139.7550  163.9530 H       1  UNL1        0.1233
     18 C         140.2269  140.5121  168.8846 C.3     1  UNL1        0.0936
     19 C         140.2503  141.9284  169.3778 C.3     1  UNL1        0.0199
     20 C         139.9298  142.6042  170.6780 C.3     1  UNL1        0.0017
     21 C         140.2835  143.9315  170.0753 C.3     1  UNL1        0.0001
     22 C         140.6039  143.2557  168.7751 C.3     1  UNL1        0.0017
@<TRIPOS>BOND
     1    10    11    1
     2    11     4    1
     3     4     5   ar
     4     5     6   ar
     5     6     7   ar
     6     7     8   ar
     7     8     9   ar
     8     9     1    1
     9     1     2    2
    10     1     3   am
    11     3    18    1
    12    18    19    1
    13    19    20    1
    14    20    21    1
    15    21    22    1
    16    12     3    1
    17    12    13    1
    18    13    14    1
    19    14    15    1
    20    15    16    1
    21     9     4   ar
    22    22    19    1
    23    16    12    1
    24    15    17    1
@<TRIPOS>MOLECULE
*****
 22 24 0 0 0
SMALL
GASTEIGER

@<TRIPOS>ATOM
      1 C         139.2186  139.4080  166.9113 C.2     1  UNL1        0.2487
      2 O         138.1143  139.2303  167.9108 O.2     1  UNL1       -0.2699
      3 N         140.5557  139.9232  167.3547 N.am    1  UNL1       -0.2763
      4 C         138.5249  140.1326  164.5147 C.ar    1  UNL1       -0.0178
      5 C         138.2920  139.7951  163.0719 C.ar    1  UNL1       -0.0041
      6 C         138.5199  138.3956  162.5827 C.ar    1  UNL1       -0.0003
      7 C         138.9807  137.3335  163.5364 C.ar    1  UNL1        0.0001
      8 C         139.2136  137.6710  164.9793 C.ar    1  UNL1        0.0042
      9 C         138.9857  139.0706  165.4684 C.ar    1  UNL1        0.0496
     10 C         137.6891  142.5559  164.0914 C.3     1  UNL1        0.0050
     11 C         138.2970  141.5322  165.0038 C.3     1  UNL1        0.0265
     12 C         141.6600  140.1009  166.3552 C.3     1  UNL1        0.0927
     13 C         141.9823  141.3638  165.6126 C.3     1  UNL1        0.0383
     14 C         143.1574  141.0904  164.7213 C.3     1  UNL1        0.0704
     15 N         143.5613  139.6585  164.9129 N.3     1  UNL1       -0.2960
     16 C         142.6359  139.0471  165.9227 C.3     1  UNL1        0.0887
     17 H         144.5224  139.6123  165.2515 H       1  UNL1        0.1233
     18 C         140.7887  140.2607  168.7976 C.3     1  UNL1        0.0936
     19 C         140.6416  141.6767  169.2698 C.3     1  UNL1        0.0199
     20 C         140.4649  143.0060  168.5977 C.3     1  UNL1        0.0017
     21 C         140.4337  143.6794  169.9377 C.3     1  UNL1        0.0001
     22 C         140.6104  142.3501  170.6098 C.3     1  UNL1        0.0017
@<TRIPOS>BOND
     1    10    11    1
     2    11     4    1
     3     4     5   ar
     4     5     6   ar
     5     6     7   ar
     6     7     8   ar
     7     8     9   ar
     8     9     1    1
     9     1     2    2
    10     1     3   am
    11     3    18    1
    12    18    19    1
    13    19    20    1
    14    20    21    1
    15    21    22    1
    16    12     3    1
    17    12    13    1
    18    13    14    1
    19    14    15    1
    20    15    16    1
    21     9     4   ar
    22    22    19    1
    23    16    12    1
    24    15    17    1
@<TRIPOS>MOLECULE
*****
 22 24 0 0 0
SMALL
GASTEIGER

@<TRIPOS>ATOM
      1 C         141.2792  141.0294  164.5121 C.2     1  UNL1        0.2487
      2 O         140.3847  141.0399  163.3081 O.2     1  UNL1       -0.2699
      3 N         140.6942  140.8334  165.8794 N.am    1  UNL1       -0.2763
      4 C         143.6467  140.0225  164.1501 C.ar    1  UNL1       -0.0178
      5 C         145.1262  140.2080  163.9869 C.ar    1  UNL1       -0.0041
      6 C         145.7177  141.5860  164.0225 C.ar    1  UNL1       -0.0003
      7 C         144.8298  142.7785  164.2213 C.ar    1  UNL1        0.0001
      8 C         143.3503  142.5929  164.3845 C.ar    1  UNL1        0.0042
      9 C         142.7588  141.2149  164.3489 C.ar    1  UNL1        0.0496
     10 C         142.5329  138.0856  162.8244 C.3     1  UNL1        0.0050
     11 C         143.0552  138.6445  164.1146 C.3     1  UNL1        0.0265
     12 C         141.5888  140.8229  167.0834 C.3     1  UNL1        0.0927
     13 C         142.0599  142.0279  167.8423 C.3     1  UNL1        0.0383
     14 C         142.9315  141.5553  168.9679 C.3     1  UNL1        0.0704
     15 N         142.9990  140.0581  168.9047 N.3     1  UNL1       -0.2960
     16 C         142.1691  139.6055  167.7400 C.3     1  UNL1        0.0887
     17 H         142.6312  139.6583  169.7679 H       1  UNL1        0.1233
     18 C         139.2147  140.6479  166.0426 C.3     1  UNL1        0.0936
     19 C         138.6423  139.2681  166.1787 C.3     1  UNL1        0.0199
     20 C         138.7985  137.9766  165.4320 C.3     1  UNL1        0.0017
     21 C         137.8328  137.3168  166.3713 C.3     1  UNL1        0.0001
     22 C         137.6767  138.6083  167.1180 C.3     1  UNL1        0.0017
@<TRIPOS>BOND
     1    10    11    1
     2    11     4    1
     3     4     5   ar
     4     5     6   ar
     5     6     7   ar
     6     7     8   ar
     7     8     9   ar
     8     9     1    1
     9     1     2    2
    10     1     3   am
    11     3    18    1
    12    18    19    1
    13    19    20    1
    14    20    21    1
    15    21    22    1
    16    12     3    1
    17    12    13    1
    18    13    14    1
    19    14    15    1
    20    15    16    1
    21     9     4   ar
    22    22    19    1
    23    16    12    1
    24    15    17    1
@<TRIPOS>MOLECULE
*****
 22 24 0 0 0
SMALL
GASTEIGER

@<TRIPOS>ATOM
      1 C         141.8540  140.3322  166.3334 C.2     1  UNL1        0.2487
      2 O         143.0625  139.6843  166.9414 O.2     1  UNL1       -0.2699
      3 N         141.9697  141.6841  165.6938 N.am    1  UNL1       -0.2763
      4 C         139.5771  139.8731  167.4974 C.ar    1  UNL1       -0.0178
      5 C         138.2529  139.1691  167.5290 C.ar    1  UNL1       -0.0041
      6 C         137.8815  138.2203  166.4281 C.ar    1  UNL1       -0.0003
      7 C         138.8342  137.9755  165.2957 C.ar    1  UNL1        0.0001
      8 C         140.1583  138.6795  165.2642 C.ar    1  UNL1        0.0042
      9 C         140.5298  139.6283  166.3650 C.ar    1  UNL1        0.0496
     10 C         139.2323  140.7605  169.9148 C.3     1  UNL1        0.0050
     11 C         139.9485  140.8218  168.5983 C.3     1  UNL1        0.0265
     12 C         140.7611  142.3320  165.0858 C.3     1  UNL1        0.0927
     13 C         139.8501  143.3112  165.7649 C.3     1  UNL1        0.0383
     14 C         138.7774  143.6989  164.7907 C.3     1  UNL1        0.0704
     15 N         139.0254  142.9592  163.5096 N.3     1  UNL1       -0.2960
     16 C         140.2514  142.1145  163.6919 C.3     1  UNL1        0.0887
     17 H         139.1725  143.6233  162.7494 H       1  UNL1        0.1233
     18 C         143.2939  142.3881  165.6622 C.3     1  UNL1        0.0936
     19 C         143.6574  143.2497  164.4895 C.3     1  UNL1        0.0199
     20 C         143.5321  144.7090  164.1662 C.3     1  UNL1        0.0017
     21 C         144.1716  144.4682  162.8309 C.3     1  UNL1        0.0001
     22 C         144.2969  143.0088  163.1542 C.3     1  UNL1        0.0017
@<TRIPOS>BOND
     1    10    11    1
     2    11     4    1
     3     4     5   ar
     4     5     6   ar
     5     6     7   ar
     6     7     8   ar
     7     8     9   ar
     8     9     1    1
     9     1     2    2
    10     1     3   am
    11     3    18    1
    12    18    19    1
    13    19    20    1
    14    20    21    1
    15    21    22    1
    16    12     3    1
    17    12    13    1
    18    13    14    1
    19    14    15    1
    20    15    16    1
    21     9     4   ar
    22    22    19    1
    23    16    12    1
    24    15    17    1
@<TRIPOS>MOLECULE
*****
 22 24 0 0 0
SMALL
GASTEIGER

@<TRIPOS>ATOM
      1 C         141.5964  139.9755  166.9921 C.2     1  UNL1        0.2487
      2 O         142.0766  139.3086  168.2470 O.2     1  UNL1       -0.2699
      3 N         141.5637  141.4725  166.9036 N.am    1  UNL1       -0.2763
      4 C         139.7005  138.7858  165.6727 C.ar    1  UNL1       -0.0178
      5 C         139.2530  137.9556  164.5064 C.ar    1  UNL1       -0.0041
      6 C         140.2537  137.4848  163.4930 C.ar    1  UNL1       -0.0003
      7 C         141.7019  137.8441  163.6460 C.ar    1  UNL1        0.0001
      8 C         142.1495  138.6743  164.8124 C.ar    1  UNL1        0.0042
      9 C         141.1488  139.1452  165.8257 C.ar    1  UNL1        0.0496
     10 C         137.5480  138.3753  167.0684 C.3     1  UNL1        0.0050
     11 C         138.6998  139.2567  166.6861 C.3     1  UNL1        0.0265
     12 C         141.0835  142.1393  165.6487 C.3     1  UNL1        0.0927
     13 C         141.8974  142.3823  164.4124 C.3     1  UNL1        0.0383
     14 C         141.0220  143.0734  163.4094 C.3     1  UNL1        0.0704
     15 N         139.6669  143.2575  164.0258 N.3     1  UNL1       -0.2960
     16 C         139.7050  142.6802  165.4097 C.3     1  UNL1        0.0887
     17 H         138.9641  142.7728  163.4678 H       1  UNL1        0.1233
     18 C         142.0114  142.3027  168.0700 C.3     1  UNL1        0.0936
     19 C         141.0556  142.6059  169.1855 C.3     1  UNL1        0.0199
     20 C         140.3404  141.7894  170.2208 C.3     1  UNL1        0.0017
     21 C         139.7038  143.0346  170.7632 C.3     1  UNL1        0.0001
     22 C         140.4190  143.8511  169.7279 C.3     1  UNL1        0.0017
@<TRIPOS>BOND
     1    10    11    1
     2    11     4    1
     3     4     5   ar
     4     5     6   ar
     5     6     7   ar
     6     7     8   ar
     7     8     9   ar
     8     9     1    1
     9     1     2    2
    10     1     3   am
    11     3    18    1
    12    18    19    1
    13    19    20    1
    14    20    21    1
    15    21    22    1
    16    12     3    1
    17    12    13    1
    18    13    14    1
    19    14    15    1
    20    15    16    1
    21     9     4   ar
    22    22    19    1
    23    16    12    1
    24    15    17    1
@<TRIPOS>MOLECULE
*****
 22 24 0 0 0
SMALL
GASTEIGER

@<TRIPOS>ATOM
      1 C         142.8788  142.2386  166.6535 C.2     1  UNL1        0.2487
      2 O         143.5805  142.5507  167.9420 O.2     1  UNL1       -0.2699
      3 N         141.3884  142.3783  166.5581 N.am    1  UNL1       -0.2763
      4 C         144.2935  142.7993  164.5477 C.ar    1  UNL1       -0.0178
      5 C         145.0823  142.3474  163.3546 C.ar    1  UNL1       -0.0041
      6 C         145.2453  140.8829  163.0741 C.ar    1  UNL1       -0.0003
      7 C         144.6195  139.8703  163.9868 C.ar    1  UNL1        0.0001
      8 C         143.8307  140.3222  165.1799 C.ar    1  UNL1        0.0042
      9 C         143.6677  141.7867  165.4603 C.ar    1  UNL1        0.0496
     10 C         143.5603  145.1698  163.7774 C.3     1  UNL1        0.0050
     11 C         144.1304  144.2638  164.8282 C.3     1  UNL1        0.0265
     12 C         140.6868  142.0661  165.2696 C.3     1  UNL1        0.0927
     13 C         140.1010  140.7404  164.8833 C.3     1  UNL1        0.0383
     14 C         139.4999  140.8798  163.5161 C.3     1  UNL1        0.0704
     15 N         139.7142  142.2918  163.0574 N.3     1  UNL1       -0.2960
     16 C         140.4477  143.0250  164.1411 C.3     1  UNL1        0.0887
     17 H         138.8144  142.7398  162.8842 H       1  UNL1        0.1233
     18 C         140.5996  142.8302  167.7513 C.3     1  UNL1        0.0936
     19 C         140.0643  141.8203  168.7227 C.3     1  UNL1        0.0199
     20 C         139.7652  141.8174  170.1926 C.3     1  UNL1        0.0017
     21 C         139.3073  140.3922  170.0966 C.3     1  UNL1        0.0001
     22 C         139.6065  140.3952  168.6267 C.3     1  UNL1        0.0017
@<TRIPOS>BOND
     1    10    11    1
     2    11     4    1
     3     4     5   ar
     4     5     6   ar
     5     6     7   ar
     6     7     8   ar
     7     8     9   ar
     8     9     1    1
     9     1     2    2
    10     1     3   am
    11     3    18    1
    12    18    19    1
    13    19    20    1
    14    20    21    1
    15    21    22    1
    16    12     3    1
    17    12    13    1
    18    13    14    1
    19    14    15    1
    20    15    16    1
    21     9     4   ar
    22    22    19    1
    23    16    12    1
    24    15    17    1
