@<TRIPOS>MOLECULE
*****
 32 36 0 0 0
SMALL
GASTEIGER

@<TRIPOS>ATOM
      1 C         139.6038  147.0072  156.4674 C.ar    1  UNL1        0.1028
      2 C         139.7917  146.8991  154.9832 C.ar    1  UNL1        0.0131
      3 C         140.5455  145.7382  154.4051 C.ar    1  UNL1       -0.0015
      4 C         141.2362  144.5173  155.0381 C.ar    1  UNL1        0.0035
      5 C         140.5926  145.4412  156.0291 C.ar    1  UNL1        0.0358
      6 C         140.1698  145.9544  157.3737 C.ar    1  UNL1        0.1545
      7 O         140.0322  145.9786  158.8671 O.3     1  UNL1       -0.4528
      8 C         140.2007  145.5102  160.2822 C.ar    1  UNL1        0.1451
      9 C         139.7870  146.0012  161.6808 C.ar    1  UNL1        0.0380
     10 C         140.0053  145.4558  163.0610 C.ar    1  UNL1        0.0096
     11 C         140.7673  144.1777  163.2505 C.ar    1  UNL1        0.0324
     12 BR        140.9856  143.6323  164.6306 Br      1  UNL1       -0.0493
     13 C         141.3109  143.4451  162.0599 C.ar    1  UNL1        0.0069
     14 C         140.6498  144.6206  161.4032 C.ar    1  UNL1        0.0354
     15 C         142.0836  142.1626  162.1519 C.3     1  UNL1        0.1207
     16 N         142.8500  140.9686  161.6653 N.am    1  UNL1       -0.2743
     17 C         143.5563  139.7409  162.1592 C.3     1  UNL1        0.0957
     18 C         144.1000  139.0083  160.9686 C.3     1  UNL1        0.0466
     19 C         143.9165  139.5315  159.3297 C.3     1  UNL1        0.1337
     20 N         144.0541  139.5072  157.8362 N.3     1  UNL1       -0.2863
     21 C         143.8855  139.9756  156.4212 C.3     1  UNL1        0.1151
     22 C         143.4365  140.8653  155.3001 C.ar    1  UNL1        0.0739
     23 C         144.0429  140.0140  154.2242 C.ar    1  UNL1        0.1147
     24 N         143.7566  140.6634  152.9028 N.ar    1  UNL1       -0.2226
     25 C         142.9731  141.9160  153.1619 C.ar    1  UNL1        0.1786
     26 N         142.7753  142.0408  154.6436 N.ar    1  UNL1       -0.3070
     27 C         142.0027  143.3232  154.5516 C.3     1  UNL1        0.1341
     28 C         143.4937  140.0446  160.6743 C.2     1  UNL1        0.2402
     29 O         143.7156  139.5959  161.2947 O.2     1  UNL1       -0.2734
     30 H         143.6524  138.5798  157.6989 H       1  UNL1        0.1240
     31 N         138.0963  149.3289  157.6236 N.1     1  UNL1       -0.1907
     32 C         138.8500  148.1680  157.0455 C.1     1  UNL1        0.1035
@<TRIPOS>BOND
     1    31    32    3
     2    32     1    1
     3     1     2   ar
     4     2     3   ar
     5     3     4   ar
     6     4     5   ar
     7     5     6   ar
     8     6     7    1
     9     7     8    1
    10     8     9   ar
    11     9    10   ar
    12    10    11   ar
    13    11    12    1
    14    11    13   ar
    15    13    14   ar
    16    13    15    1
    17    15    16    1
    18    16    17    1
    19    17    18    1
    20    19    18    1
    21    19    20    1
    22    20    21    1
    23    21    22    1
    24    22    23   ar
    25    23    24   ar
    26    24    25   ar
    27    25    26   ar
    28    26    27    1
    29    19    28    1
    30    28    29    2
    31     6     1   ar
    32    14     8   ar
    33    28    16   am
    34    27     4    1
    35    26    22   ar
    36    20    30    1
@<TRIPOS>MOLECULE
*****
 32 36 0 0 0
SMALL
GASTEIGER

@<TRIPOS>ATOM
      1 C         142.5920  137.8059  156.9961 C.ar    1  UNL1        0.1028
      2 C         142.7133  138.3494  155.6033 C.ar    1  UNL1        0.0131
      3 C         142.3936  139.7891  155.3295 C.ar    1  UNL1       -0.0015
      4 C         141.9261  140.9481  156.2276 C.ar    1  UNL1        0.0035
      5 C         142.1245  139.6503  156.9531 C.ar    1  UNL1        0.0358
      6 C         142.1508  138.7021  158.1151 C.ar    1  UNL1        0.1545
      7 O         142.0010  138.2481  159.5368 O.3     1  UNL1       -0.4528
      8 C         141.6978  138.3572  161.0019 C.ar    1  UNL1        0.1451
      9 C         141.7111  137.4180  162.2209 C.ar    1  UNL1        0.0380
     10 C         141.3863  137.6216  163.6710 C.ar    1  UNL1        0.0096
     11 C         140.9470  138.9703  164.1590 C.ar    1  UNL1        0.0324
     12 BR        140.6223  139.1740  165.6092 Br      1  UNL1       -0.0493
     13 C         140.8325  140.1152  163.1968 C.ar    1  UNL1        0.0069
     14 C         141.2875  139.0128  162.2870 C.ar    1  UNL1        0.0354
     15 C         140.4020  141.4966  163.5926 C.3     1  UNL1        0.1207
     16 N         140.0617  142.9465  163.4142 N.am    1  UNL1       -0.2743
     17 C         139.6068  144.1528  164.1811 C.3     1  UNL1        0.0957
     18 C         139.4922  145.2977  163.2189 C.3     1  UNL1        0.0466
     19 C         139.8370  145.1925  161.5267 C.3     1  UNL1        0.1337
     20 N         139.9869  145.6466  160.1050 N.3     1  UNL1       -0.2863
     21 C         140.2901  145.5375  158.6400 C.3     1  UNL1        0.1151
     22 C         140.7004  144.8818  157.3547 C.ar    1  UNL1        0.0739
     23 C         140.5348  146.1242  156.5307 C.ar    1  UNL1        0.1147
     24 N         140.8874  145.7896  155.1117 N.ar    1  UNL1       -0.2226
     25 C         141.2710  144.3405  155.0587 C.ar    1  UNL1        0.1786
     26 N         141.1554  143.7794  156.4450 N.ar    1  UNL1       -0.3070
     27 C         141.5858  142.3980  156.0492 C.3     1  UNL1        0.1341
     28 C         139.8633  144.2444  162.6888 C.2     1  UNL1        0.2402
     29 O         139.6506  144.5593  163.3895 O.2     1  UNL1       -0.2734
     30 H         140.6261  146.4178  160.2974 H       1  UNL1        0.1240
     31 N         143.2315  134.9266  157.5438 N.1     1  UNL1       -0.1907
     32 C         142.9117  136.3662  157.2700 C.1     1  UNL1        0.1035
@<TRIPOS>BOND
     1    31    32    3
     2    32     1    1
     3     1     2   ar
     4     2     3   ar
     5     3     4   ar
     6     4     5   ar
     7     5     6   ar
     8     6     7    1
     9     7     8    1
    10     8     9   ar
    11     9    10   ar
    12    10    11   ar
    13    11    12    1
    14    11    13   ar
    15    13    14   ar
    16    13    15    1
    17    15    16    1
    18    16    17    1
    19    17    18    1
    20    19    18    1
    21    19    20    1
    22    20    21    1
    23    21    22    1
    24    22    23   ar
    25    23    24   ar
    26    24    25   ar
    27    25    26   ar
    28    26    27    1
    29    19    28    1
    30    28    29    2
    31     6     1   ar
    32    14     8   ar
    33    28    16   am
    34    27     4    1
    35    26    22   ar
    36    20    30    1
@<TRIPOS>MOLECULE
*****
 32 36 0 0 0
SMALL
GASTEIGER

@<TRIPOS>ATOM
      1 C         140.1935  144.7665  156.6041 C.ar    1  UNL1        0.1028
      2 C         140.5348  144.1830  155.2652 C.ar    1  UNL1        0.0131
      3 C         141.0487  142.7770  155.1686 C.ar    1  UNL1       -0.0015
      4 C         141.3344  141.6910  156.2209 C.ar    1  UNL1        0.0035
      5 C         140.8165  142.9779  156.7914 C.ar    1  UNL1        0.0358
      6 C         140.3659  143.9440  157.8467 C.ar    1  UNL1        0.1545
      7 O         140.0512  144.4421  159.2261 O.3     1  UNL1       -0.4528
      8 C         139.9202  144.3963  160.7197 C.ar    1  UNL1        0.1451
      9 C         139.4661  145.3561  161.8337 C.ar    1  UNL1        0.0380
     10 C         139.3685  145.2181  163.3241 C.ar    1  UNL1        0.0096
     11 C         139.7647  143.9315  163.9858 C.ar    1  UNL1        0.0324
     12 BR        139.6672  143.7936  165.4762 Br      1  UNL1       -0.0493
     13 C         140.2584  142.7830  163.1570 C.ar    1  UNL1        0.0069
     14 C         139.9930  143.8137  162.1000 C.ar    1  UNL1        0.0354
     15 C         140.6761  141.4610  163.7296 C.3     1  UNL1        0.1207
     16 N         141.1824  140.0490  163.7307 N.am    1  UNL1       -0.2743
     17 C         141.4990  138.9118  164.6563 C.3     1  UNL1        0.0957
     18 C         141.9927  137.7633  163.8274 C.3     1  UNL1        0.0466
     19 C         142.1509  137.7960  162.1049 C.3     1  UNL1        0.1337
     20 N         142.4657  137.2979  160.7254 N.3     1  UNL1       -0.2863
     21 C         142.5966  137.3437  159.2318 C.3     1  UNL1        0.1151
     22 C         142.5238  137.9262  157.8515 C.ar    1  UNL1        0.0739
     23 C         143.0344  136.6889  157.1745 C.ar    1  UNL1        0.1147
     24 N         143.0845  136.9550  155.6991 N.ar    1  UNL1       -0.2226
     25 C         142.6049  138.3568  155.4643 C.ar    1  UNL1        0.1786
     26 N         142.2584  138.9570  156.7946 N.ar    1  UNL1       -0.3070
     27 C         141.8407  140.2790  156.2220 C.3     1  UNL1        0.1341
     28 C         141.7003  138.7620  163.1602 C.2     1  UNL1        0.2402
     29 O         141.7257  138.4856  163.9075 O.2     1  UNL1       -0.2734
     30 H         141.8700  136.4707  160.7632 H       1  UNL1        0.1240
     31 N         139.1659  147.5783  156.7973 N.1     1  UNL1       -0.1907
     32 C         139.6797  146.1724  156.7007 C.1     1  UNL1        0.1035
@<TRIPOS>BOND
     1    31    32    3
     2    32     1    1
     3     1     2   ar
     4     2     3   ar
     5     3     4   ar
     6     4     5   ar
     7     5     6   ar
     8     6     7    1
     9     7     8    1
    10     8     9   ar
    11     9    10   ar
    12    10    11   ar
    13    11    12    1
    14    11    13   ar
    15    13    14   ar
    16    13    15    1
    17    15    16    1
    18    16    17    1
    19    17    18    1
    20    19    18    1
    21    19    20    1
    22    20    21    1
    23    21    22    1
    24    22    23   ar
    25    23    24   ar
    26    24    25   ar
    27    25    26   ar
    28    26    27    1
    29    19    28    1
    30    28    29    2
    31     6     1   ar
    32    14     8   ar
    33    28    16   am
    34    27     4    1
    35    26    22   ar
    36    20    30    1
@<TRIPOS>MOLECULE
*****
 32 36 0 0 0
SMALL
GASTEIGER

@<TRIPOS>ATOM
      1 C         142.3657  137.5538  156.8236 C.ar    1  UNL1        0.1028
      2 C         142.0758  137.8629  155.3848 C.ar    1  UNL1        0.0131
      3 C         141.5837  139.2252  154.9947 C.ar    1  UNL1       -0.0015
      4 C         141.2779  140.4997  155.8013 C.ar    1  UNL1        0.0035
      5 C         141.7602  139.3479  156.6323 C.ar    1  UNL1        0.0358
      6 C         142.1636  138.6068  157.8725 C.ar    1  UNL1        0.1545
      7 O         142.4267  138.3895  159.3331 O.3     1  UNL1       -0.4528
      8 C         142.5095  138.7290  160.7919 C.ar    1  UNL1        0.1451
      9 C         142.9146  138.0058  162.0885 C.ar    1  UNL1        0.0380
     10 C         142.9653  138.4353  163.5248 C.ar    1  UNL1        0.0096
     11 C         142.5644  139.8298  163.9052 C.ar    1  UNL1        0.0324
     12 BR        142.6151  140.2593  165.3415 Br      1  UNL1       -0.0493
     13 C         142.1129  140.7947  162.8494 C.ar    1  UNL1        0.0069
     14 C         142.3993  139.5736  162.0266 C.ar    1  UNL1        0.0354
     15 C         141.6940  142.2065  163.1348 C.3     1  UNL1        0.1207
     16 N         141.2063  143.5939  162.8396 N.am    1  UNL1       -0.2743
     17 C         140.8745  144.8937  163.5108 C.3     1  UNL1        0.0957
     18 C         140.4230  145.8587  162.4549 C.3     1  UNL1        0.0466
     19 C         140.3206  145.4868  160.7684 C.3     1  UNL1        0.1337
     20 N         140.0575  145.7041  159.3077 N.3     1  UNL1       -0.2863
     21 C         139.9747  145.3646  157.8489 C.3     1  UNL1        0.1151
     22 C         140.0849  144.5200  156.6142 C.ar    1  UNL1        0.0739
     23 C         139.6128  145.6021  155.6889 C.ar    1  UNL1        0.1147
     24 N         139.6073  145.0497  154.2944 N.ar    1  UNL1       -0.2226
     25 C         140.0761  143.6263  154.3577 C.ar    1  UNL1        0.1786
     26 N         140.3713  143.2989  155.7915 N.ar    1  UNL1       -0.3070
     27 C         140.7902  141.8871  155.5060 C.3     1  UNL1        0.1341
     28 C         140.7240  144.7459  162.0086 C.2     1  UNL1        0.2402
     29 O         140.6778  145.1648  162.6852 O.2     1  UNL1       -0.2734
     30 H         140.6623  146.5187  159.2019 H       1  UNL1        0.1240
     31 N         143.3500  134.8293  157.6037 N.1     1  UNL1       -0.1907
     32 C         142.8578  136.1915  157.2136 C.1     1  UNL1        0.1035
@<TRIPOS>BOND
     1    31    32    3
     2    32     1    1
     3     1     2   ar
     4     2     3   ar
     5     3     4   ar
     6     4     5   ar
     7     5     6   ar
     8     6     7    1
     9     7     8    1
    10     8     9   ar
    11     9    10   ar
    12    10    11   ar
    13    11    12    1
    14    11    13   ar
    15    13    14   ar
    16    13    15    1
    17    15    16    1
    18    16    17    1
    19    17    18    1
    20    19    18    1
    21    19    20    1
    22    20    21    1
    23    21    22    1
    24    22    23   ar
    25    23    24   ar
    26    24    25   ar
    27    25    26   ar
    28    26    27    1
    29    19    28    1
    30    28    29    2
    31     6     1   ar
    32    14     8   ar
    33    28    16   am
    34    27     4    1
    35    26    22   ar
    36    20    30    1
@<TRIPOS>MOLECULE
*****
 32 36 0 0 0
SMALL
GASTEIGER

@<TRIPOS>ATOM
      1 C         142.6450  136.2474  156.6979 C.ar    1  UNL1        0.1028
      2 C         142.1207  136.1797  155.2942 C.ar    1  UNL1        0.0131
      3 C         141.4351  137.3699  154.6914 C.ar    1  UNL1       -0.0015
      4 C         141.1135  138.7765  155.2265 C.ar    1  UNL1        0.0035
      5 C         141.8301  137.8956  156.2064 C.ar    1  UNL1        0.0358
      6 C         142.4838  137.5053  157.4989 C.ar    1  UNL1        0.1545
      7 O         142.9749  137.6653  158.9071 O.3     1  UNL1       -0.4528
      8 C         143.2289  138.3512  160.2168 C.ar    1  UNL1        0.1451
      9 C         143.8904  137.9919  161.5590 C.ar    1  UNL1        0.0380
     10 C         144.1000  138.7572  162.8319 C.ar    1  UNL1        0.0096
     11 C         143.6111  140.1707  162.9464 C.ar    1  UNL1        0.0324
     12 BR        143.8207  140.9361  164.2192 Br      1  UNL1       -0.0493
     13 C         142.9126  140.8188  161.7879 C.ar    1  UNL1        0.0069
     14 C         143.2070  139.4586  161.2283 C.ar    1  UNL1        0.0354
     15 C         142.3904  142.2248  161.8103 C.3     1  UNL1        0.1207
     16 N         141.7200  143.4625  161.2920 N.am    1  UNL1       -0.2743
     17 C         141.3507  144.8592  161.6958 C.3     1  UNL1        0.0957
     18 C         140.6522  145.5073  160.5373 C.3     1  UNL1        0.0466
     19 C         140.3498  144.7338  159.0196 C.3     1  UNL1        0.1337
     20 N         139.8586  144.5738  157.6113 N.3     1  UNL1       -0.2863
     21 C         139.6046  143.8879  156.3018 C.3     1  UNL1        0.1151
     22 C         139.6265  142.7805  155.2901 C.ar    1  UNL1        0.0739
     23 C         138.9139  143.5720  154.2339 C.ar    1  UNL1        0.1147
     24 N         138.7679  142.7009  153.0215 N.ar    1  UNL1       -0.2226
     25 C         139.3903  141.3711  153.3285 C.ar    1  UNL1        0.1786
     26 N         139.9210  141.4203  154.7306 N.ar    1  UNL1       -0.3070
     27 C         140.4431  140.0143  154.7082 C.3     1  UNL1        0.1341
     28 C         141.0034  144.3436  160.3121 C.2     1  UNL1        0.2402
     29 O         141.0101  144.9089  160.8741 O.2     1  UNL1       -0.2734
     30 H         140.3514  145.3791  157.2255 H       1  UNL1        0.1240
     31 N         144.0161  133.8669  157.9035 N.1     1  UNL1       -0.1907
     32 C         143.3306  135.0572  157.3007 C.1     1  UNL1        0.1035
@<TRIPOS>BOND
     1    31    32    3
     2    32     1    1
     3     1     2   ar
     4     2     3   ar
     5     3     4   ar
     6     4     5   ar
     7     5     6   ar
     8     6     7    1
     9     7     8    1
    10     8     9   ar
    11     9    10   ar
    12    10    11   ar
    13    11    12    1
    14    11    13   ar
    15    13    14   ar
    16    13    15    1
    17    15    16    1
    18    16    17    1
    19    17    18    1
    20    19    18    1
    21    19    20    1
    22    20    21    1
    23    21    22    1
    24    22    23   ar
    25    23    24   ar
    26    24    25   ar
    27    25    26   ar
    28    26    27    1
    29    19    28    1
    30    28    29    2
    31     6     1   ar
    32    14     8   ar
    33    28    16   am
    34    27     4    1
    35    26    22   ar
    36    20    30    1
@<TRIPOS>MOLECULE
*****
 32 36 0 0 0
SMALL
GASTEIGER

@<TRIPOS>ATOM
      1 C         142.4571  138.3923  155.9127 C.ar    1  UNL1        0.1028
      2 C         142.7874  137.1467  156.6804 C.ar    1  UNL1        0.0131
      3 C         142.6942  137.1414  158.1775 C.ar    1  UNL1       -0.0015
      4 C         142.3020  138.2161  159.2070 C.ar    1  UNL1        0.0035
      5 C         142.2504  138.6824  157.7823 C.ar    1  UNL1        0.0358
      6 C         142.0335  139.6327  156.6421 C.ar    1  UNL1        0.1545
      7 O         141.6843  140.9222  155.9602 O.3     1  UNL1       -0.4528
      8 C         141.2560  142.3548  155.8402 C.ar    1  UNL1        0.1451
      9 C         141.0219  143.3617  154.7001 C.ar    1  UNL1        0.0380
     10 C         140.5866  144.7969  154.6780 C.ar    1  UNL1        0.0096
     11 C         140.2882  145.5101  155.9635 C.ar    1  UNL1        0.0324
     12 BR        139.8529  146.9453  155.9414 Br      1  UNL1       -0.0493
     13 C         140.4251  144.7879  157.2710 C.ar    1  UNL1        0.0069
     14 C         140.8139  143.7122  156.3005 C.ar    1  UNL1        0.0354
     15 C         140.1489  145.4180  158.6040 C.3     1  UNL1        0.1207
     16 N         140.0274  145.5066  160.0964 N.am    1  UNL1       -0.2743
     17 C         139.6668  146.4631  161.1942 C.3     1  UNL1        0.0957
     18 C         139.8037  145.7409  162.5017 C.3     1  UNL1        0.0466
     19 C         140.2959  144.0900  162.6613 C.3     1  UNL1        0.1337
     20 N         140.6451  142.8004  163.3432 N.3     1  UNL1       -0.2863
     21 C         141.0734  141.3678  163.4632 C.3     1  UNL1        0.1151
     22 C         141.5155  140.0104  163.0029 C.ar    1  UNL1        0.0739
     23 C         141.6017  139.4390  164.3871 C.ar    1  UNL1        0.1147
     24 N         142.0437  138.0103  164.2721 N.ar    1  UNL1       -0.2226
     25 C         142.2307  137.6986  162.8168 C.ar    1  UNL1        0.1786
     26 N         141.9043  138.9348  162.0324 N.ar    1  UNL1       -0.3070
     27 C         142.1805  138.3047  160.6994 C.3     1  UNL1        0.1341
     28 C         140.0790  145.0403  161.5212 C.2     1  UNL1        0.2402
     29 O         139.8430  145.7728  161.7292 O.2     1  UNL1       -0.2734
     30 H         139.7702  142.7023  163.8583 H       1  UNL1        0.1240
     31 N         142.6436  138.4028  152.9186 N.1     1  UNL1       -0.1907
     32 C         142.5503  138.3976  154.4156 C.1     1  UNL1        0.1035
@<TRIPOS>BOND
     1    31    32    3
     2    32     1    1
     3     1     2   ar
     4     2     3   ar
     5     3     4   ar
     6     4     5   ar
     7     5     6   ar
     8     6     7    1
     9     7     8    1
    10     8     9   ar
    11     9    10   ar
    12    10    11   ar
    13    11    12    1
    14    11    13   ar
    15    13    14   ar
    16    13    15    1
    17    15    16    1
    18    16    17    1
    19    17    18    1
    20    19    18    1
    21    19    20    1
    22    20    21    1
    23    21    22    1
    24    22    23   ar
    25    23    24   ar
    26    24    25   ar
    27    25    26   ar
    28    26    27    1
    29    19    28    1
    30    28    29    2
    31     6     1   ar
    32    14     8   ar
    33    28    16   am
    34    27     4    1
    35    26    22   ar
    36    20    30    1
@<TRIPOS>MOLECULE
*****
 32 36 0 0 0
SMALL
GASTEIGER

@<TRIPOS>ATOM
      1 C         135.4213  140.7867  156.3197 C.ar    1  UNL1        0.1028
      2 C         135.2974  141.4529  154.9816 C.ar    1  UNL1        0.0131
      3 C         136.4548  142.2217  154.4164 C.ar    1  UNL1       -0.0015
      4 C         137.8730  142.5144  154.9373 C.ar    1  UNL1        0.0035
      5 C         137.0379  141.6818  155.8642 C.ar    1  UNL1        0.0358
      6 C         136.7027  140.8892  157.0928 C.ar    1  UNL1        0.1545
      7 O         136.9185  140.2573  158.4359 O.3     1  UNL1       -0.4528
      8 C         137.6525  139.8822  159.6893 C.ar    1  UNL1        0.1451
      9 C         137.3500  139.0773  160.9655 C.ar    1  UNL1        0.0380
     10 C         138.1613  138.7518  162.1844 C.ar    1  UNL1        0.0096
     11 C         139.5694  139.2549  162.3045 C.ar    1  UNL1        0.0324
     12 BR        140.3807  138.9294  163.5234 Br      1  UNL1       -0.0493
     13 C         140.1660  140.0834  161.2056 C.ar    1  UNL1        0.0069
     14 C         138.7928  139.8212  160.6618 C.ar    1  UNL1        0.0354
     15 C         141.5629  140.6290  161.2379 C.3     1  UNL1        0.1207
     16 N         142.7708  141.3749  160.7536 N.am    1  UNL1       -0.2743
     17 C         144.1739  141.7285  161.1492 C.3     1  UNL1        0.0957
     18 C         144.7705  142.5570  160.0504 C.3     1  UNL1        0.0466
     19 C         143.9412  143.0001  158.5981 C.3     1  UNL1        0.1337
     20 N         143.7253  143.6321  157.2549 N.3     1  UNL1       -0.2863
     21 C         142.9914  144.0071  156.0016 C.3     1  UNL1        0.1151
     22 C         141.8510  144.0681  155.0290 C.ar    1  UNL1        0.0739
     23 C         142.5942  144.9030  154.0287 C.ar    1  UNL1        0.1147
     24 N         141.6803  145.1567  152.8666 N.ar    1  UNL1       -0.2226
     25 C         140.3723  144.4787  153.1488 C.ar    1  UNL1        0.1786
     26 N         140.4779  143.8059  154.4853 N.ar    1  UNL1       -0.3070
     27 C         139.0810  143.2603  154.4530 C.3     1  UNL1        0.1341
     28 C         143.6060  142.2075  159.8267 C.2     1  UNL1        0.2402
     29 O         144.1900  142.1539  160.3666 O.2     1  UNL1       -0.2734
     30 H         144.5255  143.1986  156.7941 H       1  UNL1        0.1240
     31 N         133.1067  139.2490  157.4502 N.1     1  UNL1       -0.1907
     32 C         134.2640  140.0178  156.8850 C.1     1  UNL1        0.1035
@<TRIPOS>BOND
     1    31    32    3
     2    32     1    1
     3     1     2   ar
     4     2     3   ar
     5     3     4   ar
     6     4     5   ar
     7     5     6   ar
     8     6     7    1
     9     7     8    1
    10     8     9   ar
    11     9    10   ar
    12    10    11   ar
    13    11    12    1
    14    11    13   ar
    15    13    14   ar
    16    13    15    1
    17    15    16    1
    18    16    17    1
    19    17    18    1
    20    19    18    1
    21    19    20    1
    22    20    21    1
    23    21    22    1
    24    22    23   ar
    25    23    24   ar
    26    24    25   ar
    27    25    26   ar
    28    26    27    1
    29    19    28    1
    30    28    29    2
    31     6     1   ar
    32    14     8   ar
    33    28    16   am
    34    27     4    1
    35    26    22   ar
    36    20    30    1
@<TRIPOS>MOLECULE
*****
 32 36 0 0 0
SMALL
GASTEIGER

@<TRIPOS>ATOM
      1 C         145.6689  142.4911  157.2121 C.ar    1  UNL1        0.1028
      2 C         145.2852  142.4223  155.7637 C.ar    1  UNL1        0.0131
      3 C         143.8753  142.0873  155.3764 C.ar    1  UNL1       -0.0015
      4 C         142.6115  141.7676  156.1943 C.ar    1  UNL1        0.0035
      5 C         143.8273  142.0482  157.0268 C.ar    1  UNL1        0.0358
      6 C         144.6428  142.2249  158.2733 C.ar    1  UNL1        0.1545
      7 O         144.9336  142.2708  159.7441 O.3     1  UNL1       -0.4528
      8 C         144.6556  142.1790  161.2153 C.ar    1  UNL1        0.1451
      9 C         145.4555  142.3510  162.5187 C.ar    1  UNL1        0.0380
     10 C         145.0846  142.2370  163.9676 C.ar    1  UNL1        0.0096
     11 C         143.6781  141.8899  164.3567 C.ar    1  UNL1        0.0324
     12 BR        143.3072  141.7759  165.8056 Br      1  UNL1       -0.0493
     13 C         142.6426  141.6568  163.2968 C.ar    1  UNL1        0.0069
     14 C         143.8511  141.9634  162.4628 C.ar    1  UNL1        0.0354
     15 C         141.2140  141.3059  163.5903 C.3     1  UNL1        0.1207
     16 N         139.7829  140.9642  163.2985 N.am    1  UNL1       -0.2743
     17 C         138.4869  140.6390  163.9802 C.3     1  UNL1        0.0957
     18 C         137.4515  140.4058  162.9203 C.3     1  UNL1        0.0466
     19 C         137.7517  140.5069  161.2195 C.3     1  UNL1        0.1337
     20 N         137.4609  140.4610  159.7486 N.3     1  UNL1       -0.2863
     21 C         137.7388  140.5528  158.2775 C.3     1  UNL1        0.1151
     22 C         138.5433  140.7684  157.0299 C.ar    1  UNL1        0.0739
     23 C         137.3943  140.5056  156.1021 C.ar    1  UNL1        0.1147
     24 N         137.8928  140.6498  154.6947 N.ar    1  UNL1       -0.2226
     25 C         139.3498  141.0017  154.7527 C.ar    1  UNL1        0.1786
     26 N         139.7518  141.0750  156.1960 N.ar    1  UNL1       -0.3070
     27 C         141.1804  141.4259  155.9025 C.3     1  UNL1        0.1341
     28 C         138.5671  140.6836  162.4660 C.2     1  UNL1        0.2402
     29 O         138.1711  140.5763  163.1495 O.2     1  UNL1       -0.2734
     30 H         136.6925  141.1317  159.7624 H       1  UNL1        0.1240
     31 N         148.4887  143.1610  157.9869 N.1     1  UNL1       -0.1907
     32 C         147.0788  142.8261  157.5995 C.1     1  UNL1        0.1035
@<TRIPOS>BOND
     1    31    32    3
     2    32     1    1
     3     1     2   ar
     4     2     3   ar
     5     3     4   ar
     6     4     5   ar
     7     5     6   ar
     8     6     7    1
     9     7     8    1
    10     8     9   ar
    11     9    10   ar
    12    10    11   ar
    13    11    12    1
    14    11    13   ar
    15    13    14   ar
    16    13    15    1
    17    15    16    1
    18    16    17    1
    19    17    18    1
    20    19    18    1
    21    19    20    1
    22    20    21    1
    23    21    22    1
    24    22    23   ar
    25    23    24   ar
    26    24    25   ar
    27    25    26   ar
    28    26    27    1
    29    19    28    1
    30    28    29    2
    31     6     1   ar
    32    14     8   ar
    33    28    16   am
    34    27     4    1
    35    26    22   ar
    36    20    30    1
@<TRIPOS>MOLECULE
*****
 32 36 0 0 0
SMALL
GASTEIGER

@<TRIPOS>ATOM
      1 C         143.6406  141.8929  160.8372 C.ar    1  UNL1        0.1028
      2 C         144.2426  140.5791  161.2387 C.ar    1  UNL1        0.0131
      3 C         143.9821  139.3520  160.4162 C.ar    1  UNL1       -0.0015
      4 C         143.1648  139.1023  159.1364 C.ar    1  UNL1        0.0035
      5 C         143.1396  140.5241  159.6135 C.ar    1  UNL1        0.0358
      6 C         142.7780  141.9799  159.6132 C.ar    1  UNL1        0.1545
      7 O         142.1349  143.2479  159.1352 O.3     1  UNL1       -0.4528
      8 C         141.3081  144.1352  158.2524 C.ar    1  UNL1        0.1451
      9 C         140.9130  145.6221  158.2144 C.ar    1  UNL1        0.0380
     10 C         140.0675  146.4308  157.2759 C.ar    1  UNL1        0.0096
     11 C         139.4190  145.7726  156.0942 C.ar    1  UNL1        0.0324
     12 BR        138.5734  146.5813  155.1557 Br      1  UNL1       -0.0493
     13 C         139.6161  144.3056  155.8512 C.ar    1  UNL1        0.0069
     14 C         140.4237  144.5066  157.0992 C.ar    1  UNL1        0.0354
     15 C         139.0085  143.5629  154.6984 C.3     1  UNL1        0.1207
     16 N         138.6932  142.3914  153.8162 N.am    1  UNL1       -0.2743
     17 C         137.9338  142.0206  152.5769 C.3     1  UNL1        0.0957
     18 C         138.1309  140.5537  152.3339 C.3     1  UNL1        0.0466
     19 C         139.0799  139.5137  153.3394 C.3     1  UNL1        0.1337
     20 N         139.7231  138.2457  153.8174 N.3     1  UNL1       -0.2863
     21 C         140.5498  137.3585  154.7002 C.3     1  UNL1        0.1151
     22 C         141.4343  136.9870  155.8534 C.ar    1  UNL1        0.0739
     23 C         141.5286  135.5404  155.4681 C.ar    1  UNL1        0.1147
     24 N         142.3945  134.8474  156.4780 N.ar    1  UNL1       -0.2226
     25 C         142.8353  135.8656  157.4875 C.ar    1  UNL1        0.1786
     26 N         142.2418  137.1880  157.1014 N.ar    1  UNL1       -0.3070
     27 C         142.8495  137.9308  158.2542 C.3     1  UNL1        0.1341
     28 C         138.7182  140.9695  153.3390 C.2     1  UNL1        0.2402
     29 O         138.2481  141.2029  152.7391 O.2     1  UNL1       -0.2734
     30 H         140.2108  138.0295  152.9481 H       1  UNL1        0.1240
     31 N         144.1616  144.3470  162.4823 N.1     1  UNL1       -0.1907
     32 C         143.9011  143.1200  161.6597 C.1     1  UNL1        0.1035
@<TRIPOS>BOND
     1    31    32    3
     2    32     1    1
     3     1     2   ar
     4     2     3   ar
     5     3     4   ar
     6     4     5   ar
     7     5     6   ar
     8     6     7    1
     9     7     8    1
    10     8     9   ar
    11     9    10   ar
    12    10    11   ar
    13    11    12    1
    14    11    13   ar
    15    13    14   ar
    16    13    15    1
    17    15    16    1
    18    16    17    1
    19    17    18    1
    20    19    18    1
    21    19    20    1
    22    20    21    1
    23    21    22    1
    24    22    23   ar
    25    23    24   ar
    26    24    25   ar
    27    25    26   ar
    28    26    27    1
    29    19    28    1
    30    28    29    2
    31     6     1   ar
    32    14     8   ar
    33    28    16   am
    34    27     4    1
    35    26    22   ar
    36    20    30    1
