@<TRIPOS>MOLECULE
*****
 34 37 0 0 0
SMALL
GASTEIGER

@<TRIPOS>ATOM
      1 C         139.0703  139.3951  165.1042 C.ar    1  UNL1        0.1335
      2 C         138.1166  138.4720  165.8029 C.ar    1  UNL1        0.0360
      3 C         137.9164  138.5823  167.2853 C.ar    1  UNL1        0.0251
      4 C         138.6699  139.6157  168.0691 C.ar    1  UNL1        0.1183
      5 N         138.6789  139.9585  169.5294 N.ar    1  UNL1       -0.2123
      6 C         139.6382  141.0935  169.7332 C.ar    1  UNL1        0.1959
      7 N         139.9576  141.7539  171.0416 N.pl3   1  UNL1       -0.3287
      8 N         140.2220  141.4522  168.3988 N.ar    1  UNL1       -0.2824
      9 C         139.6235  140.5389  167.3704 C.ar    1  UNL1        0.1651
     10 N         139.8237  140.4286  165.8879 N.ar    1  UNL1       -0.2120
     11 H         139.5204  141.4459  171.8682 H       1  UNL1        0.1451
     12 H         140.6045  142.4953  171.0738 H       1  UNL1        0.1451
     13 C         139.8712  138.9540  159.1742 C.3     1  UNL1        0.0897
     14 N         139.6710  139.0643  160.6567 N.3     1  UNL1       -0.2686
     15 C         140.4432  140.0809  161.4442 C.3     1  UNL1        0.0939
     16 C         140.2429  140.1912  162.9267 C.3     1  UNL1        0.1095
     17 N         139.2705  139.2849  163.6216 N.pl3   1  UNL1       -0.2903
     18 C         138.4983  138.2682  162.8341 C.3     1  UNL1        0.1095
     19 C         138.6985  138.1579  161.3517 C.3     1  UNL1        0.0939
     20 C         141.2277  142.5343  168.1386 C.3     1  UNL1        0.1438
     21 C         142.6563  142.1774  167.8528 C.3     1  UNL1        0.1561
     22 O         143.7340  142.5626  168.8224 O.3     1  UNL1       -0.3780
     23 H         144.5927  142.2588  168.4889 H       1  UNL1        0.2109
     24 C         143.0073  141.4354  166.5973 C.ar    1  UNL1        0.0167
     25 C         143.2498  142.1893  165.3234 C.ar    1  UNL1       -0.0011
     26 C         143.6007  141.4473  164.0679 C.ar    1  UNL1        0.0037
     27 C         143.7092  139.9514  164.0863 C.ar    1  UNL1        0.0722
     28 C         143.4667  139.1974  165.3601 C.ar    1  UNL1        0.0150
     29 C         143.1157  139.9395  166.6156 C.ar    1  UNL1        0.0559
     30 CL        142.8732  139.1855  167.8895 Cl      1  UNL1       -0.0825
     31 C         144.0602  139.2093  162.8308 C.3     1  UNL1        0.4186
     32 F         144.4111  138.4673  161.5753 F       1  UNL1       -0.1659
     33 F         144.9970  140.3137  162.4400 F       1  UNL1       -0.1659
     34 F         143.1233  138.1050  163.2216 F       1  UNL1       -0.1659
@<TRIPOS>BOND
     1    13    14    1
     2    14    15    1
     3    15    16    1
     4    16    17    1
     5    17     1    1
     6     1     2   ar
     7     2     3   ar
     8     3     4   ar
     9     4     5   ar
    10     5     6   ar
    11     6     7    1
    12     6     8   ar
    13     8    20    1
    14    20    21    1
    15    21    22    1
    16    21    24    1
    17    24    25   ar
    18    25    26   ar
    19    26    27   ar
    20    27    31    1
    21    31    32    1
    22    31    33    1
    23    31    34    1
    24    27    28   ar
    25    28    29   ar
    26    29    30    1
    27     8     9   ar
    28     9    10   ar
    29    17    18    1
    30    18    19    1
    31    19    14    1
    32    10     1   ar
    33     9     4   ar
    34    29    24   ar
    35     7    11    1
    36     7    12    1
    37    22    23    1
@<TRIPOS>MOLECULE
*****
 34 37 0 0 0
SMALL
GASTEIGER

@<TRIPOS>ATOM
      1 C         142.3020  142.4986  165.9703 C.ar    1  UNL1        0.1335
      2 C         143.7751  142.6229  165.7166 C.ar    1  UNL1        0.0360
      3 C         144.2670  143.2355  164.4389 C.ar    1  UNL1        0.0251
      4 C         143.2857  143.7238  163.4148 C.ar    1  UNL1        0.1183
      5 N         143.4723  144.3667  162.0724 N.ar    1  UNL1       -0.2123
      6 C         142.1144  144.6397  161.4965 C.ar    1  UNL1        0.1959
      7 N         141.8318  145.2753  160.1675 N.pl3   1  UNL1       -0.3287
      8 N         141.0887  144.1655  162.4830 N.ar    1  UNL1       -0.2824
      9 C         141.8126  143.5995  163.6685 C.ar    1  UNL1        0.1651
     10 N         141.3208  142.9868  164.9463 N.ar    1  UNL1       -0.2120
     11 H         142.5764  145.5546  159.5871 H       1  UNL1        0.1451
     12 H         140.9018  145.4132  159.8756 H       1  UNL1        0.1451
     13 C         140.3343  140.0481  171.0815 C.3     1  UNL1        0.0897
     14 N         140.8263  140.6607  169.8037 N.3     1  UNL1       -0.2686
     15 C         142.0234  141.5644  169.8175 C.3     1  UNL1        0.0939
     16 C         142.5153  142.1770  168.5396 C.3     1  UNL1        0.1095
     17 N         141.8101  141.8859  167.2482 N.pl3   1  UNL1       -0.2903
     18 C         140.6130  140.9822  167.2344 C.3     1  UNL1        0.1095
     19 C         140.1210  140.3696  168.5122 C.3     1  UNL1        0.0939
     20 C         139.6003  144.2436  162.3136 C.3     1  UNL1        0.1438
     21 C         138.8387  143.0518  161.8142 C.3     1  UNL1        0.1561
     22 O         138.1477  143.1069  160.4840 O.3     1  UNL1       -0.3780
     23 H         137.7058  142.2603  160.3139 H       1  UNL1        0.2109
     24 C         138.7681  141.8049  162.6449 C.ar    1  UNL1        0.0167
     25 C         139.3713  140.5293  162.1358 C.ar    1  UNL1       -0.0011
     26 C         139.3007  139.2824  162.9666 C.ar    1  UNL1        0.0037
     27 C         138.6269  139.3109  164.3064 C.ar    1  UNL1        0.0722
     28 C         138.0238  140.5864  164.8155 C.ar    1  UNL1        0.0150
     29 C         138.0944  141.8334  163.9847 C.ar    1  UNL1        0.0559
     30 CL        137.4912  143.1089  164.4938 Cl      1  UNL1       -0.0825
     31 C         138.5563  138.0640  165.1371 C.3     1  UNL1        0.4186
     32 F         138.4857  136.8170  165.9679 F       1  UNL1       -0.1659
     33 F         139.3264  137.3203  164.0864 F       1  UNL1       -0.1659
     34 F         137.7862  138.8076  166.1878 F       1  UNL1       -0.1659
@<TRIPOS>BOND
     1    13    14    1
     2    14    15    1
     3    15    16    1
     4    16    17    1
     5    17     1    1
     6     1     2   ar
     7     2     3   ar
     8     3     4   ar
     9     4     5   ar
    10     5     6   ar
    11     6     7    1
    12     6     8   ar
    13     8    20    1
    14    20    21    1
    15    21    22    1
    16    21    24    1
    17    24    25   ar
    18    25    26   ar
    19    26    27   ar
    20    27    31    1
    21    31    32    1
    22    31    33    1
    23    31    34    1
    24    27    28   ar
    25    28    29   ar
    26    29    30    1
    27     8     9   ar
    28     9    10   ar
    29    17    18    1
    30    18    19    1
    31    19    14    1
    32    10     1   ar
    33     9     4   ar
    34    29    24   ar
    35     7    11    1
    36     7    12    1
    37    22    23    1
@<TRIPOS>MOLECULE
*****
 34 37 0 0 0
SMALL
GASTEIGER

@<TRIPOS>ATOM
      1 C         142.2581  142.4608  165.9620 C.ar    1  UNL1        0.1335
      2 C         143.7337  142.5630  165.7130 C.ar    1  UNL1        0.0360
      3 C         144.2391  143.1940  164.4495 C.ar    1  UNL1        0.0251
      4 C         143.2689  143.7227  163.4351 C.ar    1  UNL1        0.1183
      5 N         143.4698  144.3912  162.1073 N.ar    1  UNL1       -0.2123
      6 C         142.1183  144.7020  161.5357 C.ar    1  UNL1        0.1959
      7 N         141.8499  145.3716  160.2205 N.pl3   1  UNL1       -0.3287
      8 N         141.0822  144.2257  162.5102 N.ar    1  UNL1       -0.2824
      9 C         141.7933  143.6205  163.6841 C.ar    1  UNL1        0.1651
     10 N         141.2879  142.9895  164.9475 N.ar    1  UNL1       -0.2120
     11 H         142.6006  145.6495  159.6474 H       1  UNL1        0.1451
     12 H         140.9231  145.5333  159.9305 H       1  UNL1        0.1451
     13 C         140.2362  139.9368  171.0159 C.3     1  UNL1        0.0897
     14 N         140.7417  140.5678  169.7525 N.3     1  UNL1       -0.2686
     15 C         140.0660  140.2751  168.4456 C.3     1  UNL1        0.0939
     16 C         140.5715  140.9061  167.1821 C.3     1  UNL1        0.1095
     17 N         141.7526  141.8297  167.2255 N.pl3   1  UNL1       -0.2903
     18 C         142.4282  142.1224  168.5323 C.3     1  UNL1        0.1095
     19 C         141.9228  141.4914  169.7958 C.3     1  UNL1        0.0939
     20 C         139.5958  144.3354  162.3407 C.3     1  UNL1        0.1438
     21 C         138.8068  143.1545  161.8581 C.3     1  UNL1        0.1561
     22 O         138.1008  143.2139  160.5360 O.3     1  UNL1       -0.3780
     23 H         137.6417  142.3744  160.3766 H       1  UNL1        0.2109
     24 C         138.7239  141.9142  162.6975 C.ar    1  UNL1        0.0167
     25 C         137.8079  141.8719  163.8847 C.ar    1  UNL1       -0.0011
     26 C         137.7250  140.6316  164.7241 C.ar    1  UNL1        0.0037
     27 C         138.5579  139.4335  164.3766 C.ar    1  UNL1        0.0722
     28 C         139.4739  139.4759  163.1895 C.ar    1  UNL1        0.0150
     29 C         139.5568  140.7162  162.3500 C.ar    1  UNL1        0.0559
     30 CL        140.4728  140.7585  161.1629 Cl      1  UNL1       -0.0825
     31 C         138.4750  138.1932  165.2161 C.3     1  UNL1        0.4186
     32 F         138.3920  136.9529  166.0556 F       1  UNL1       -0.1659
     33 F         139.2188  137.4294  164.1610 F       1  UNL1       -0.1659
     34 F         137.7312  138.9571  166.2712 F       1  UNL1       -0.1659
@<TRIPOS>BOND
     1    13    14    1
     2    14    15    1
     3    15    16    1
     4    16    17    1
     5    17     1    1
     6     1     2   ar
     7     2     3   ar
     8     3     4   ar
     9     4     5   ar
    10     5     6   ar
    11     6     7    1
    12     6     8   ar
    13     8    20    1
    14    20    21    1
    15    21    22    1
    16    21    24    1
    17    24    25   ar
    18    25    26   ar
    19    26    27   ar
    20    27    31    1
    21    31    32    1
    22    31    33    1
    23    31    34    1
    24    27    28   ar
    25    28    29   ar
    26    29    30    1
    27     8     9   ar
    28     9    10   ar
    29    17    18    1
    30    18    19    1
    31    19    14    1
    32    10     1   ar
    33     9     4   ar
    34    29    24   ar
    35     7    11    1
    36     7    12    1
    37    22    23    1
@<TRIPOS>MOLECULE
*****
 34 37 0 0 0
SMALL
GASTEIGER

@<TRIPOS>ATOM
      1 C         139.1903  139.9720  165.6147 C.ar    1  UNL1        0.1335
      2 C         139.1610  138.4840  165.4285 C.ar    1  UNL1        0.0360
      3 C         138.8059  137.9022  164.0923 C.ar    1  UNL1        0.0251
      4 C         138.4802  138.8085  162.9423 C.ar    1  UNL1        0.1183
      5 N         138.0973  138.5268  161.5195 N.ar    1  UNL1       -0.2123
      6 C         137.8900  139.8408  160.8265 C.ar    1  UNL1        0.1959
      7 N         137.4969  140.0282  159.3910 N.pl3   1  UNL1       -0.3287
      8 N         138.1447  140.9346  161.8209 N.ar    1  UNL1       -0.2824
      9 C         138.5095  140.2966  163.1285 C.ar    1  UNL1        0.1651
     10 N         138.8645  140.8784  164.4647 N.ar    1  UNL1       -0.2120
     11 H         137.3513  139.2438  158.8141 H       1  UNL1        0.1451
     12 H         137.3846  140.9355  159.0258 H       1  UNL1        0.1451
     13 C         140.6104  142.2995  170.9594 C.3     1  UNL1        0.0897
     14 N         140.2554  141.7176  169.6233 N.3     1  UNL1       -0.2686
     15 C         139.5144  140.4157  169.5451 C.3     1  UNL1        0.0939
     16 C         139.1594  139.8339  168.2089 C.3     1  UNL1        0.1095
     17 N         139.5453  140.5539  166.9509 N.pl3   1  UNL1       -0.2903
     18 C         140.2863  141.8558  167.0291 C.3     1  UNL1        0.1095
     19 C         140.6413  142.4376  168.3652 C.3     1  UNL1        0.0939
     20 C         138.0511  142.4077  161.5544 C.3     1  UNL1        0.1438
     21 C         139.2607  143.1645  161.0915 C.3     1  UNL1        0.1561
     22 O         139.3119  143.7167  159.6978 O.3     1  UNL1       -0.3780
     23 H         140.1564  144.1741  159.5621 H       1  UNL1        0.2109
     24 C         140.4190  143.3692  162.0223 C.ar    1  UNL1        0.0167
     25 C         141.4028  142.2601  162.2505 C.ar    1  UNL1       -0.0011
     26 C         142.5611  142.4647  163.1813 C.ar    1  UNL1        0.0037
     27 C         142.7357  143.7784  163.8840 C.ar    1  UNL1        0.0722
     28 C         141.7519  144.8875  163.6558 C.ar    1  UNL1        0.0150
     29 C         140.5935  144.6828  162.7250 C.ar    1  UNL1        0.0559
     30 CL        139.6097  145.7919  162.4968 Cl      1  UNL1       -0.0825
     31 C         143.8940  143.9830  164.8148 C.3     1  UNL1        0.4186
     32 F         145.0523  144.1876  165.7456 F       1  UNL1       -0.1659
     33 F         143.9372  145.4352  164.4417 F       1  UNL1       -0.1659
     34 F         143.8507  142.5308  165.1879 F       1  UNL1       -0.1659
@<TRIPOS>BOND
     1    13    14    1
     2    14    15    1
     3    15    16    1
     4    16    17    1
     5    17     1    1
     6     1     2   ar
     7     2     3   ar
     8     3     4   ar
     9     4     5   ar
    10     5     6   ar
    11     6     7    1
    12     6     8   ar
    13     8    20    1
    14    20    21    1
    15    21    22    1
    16    21    24    1
    17    24    25   ar
    18    25    26   ar
    19    26    27   ar
    20    27    31    1
    21    31    32    1
    22    31    33    1
    23    31    34    1
    24    27    28   ar
    25    28    29   ar
    26    29    30    1
    27     8     9   ar
    28     9    10   ar
    29    17    18    1
    30    18    19    1
    31    19    14    1
    32    10     1   ar
    33     9     4   ar
    34    29    24   ar
    35     7    11    1
    36     7    12    1
    37    22    23    1
@<TRIPOS>MOLECULE
*****
 34 37 0 0 0
SMALL
GASTEIGER

@<TRIPOS>ATOM
      1 C         140.6553  143.3238  165.6912 C.ar    1  UNL1        0.1335
      2 C         139.3368  144.0241  165.5465 C.ar    1  UNL1        0.0360
      3 C         139.0013  144.7348  164.2689 C.ar    1  UNL1        0.0251
      4 C         139.9844  144.7452  163.1360 C.ar    1  UNL1        0.1183
      5 N         139.9325  145.3577  161.7676 N.ar    1  UNL1       -0.2123
      6 C         141.2190  145.0358  161.0667 C.ar    1  UNL1        0.1959
      7 N         141.5929  145.4522  159.6750 N.pl3   1  UNL1       -0.3287
      8 N         142.0659  144.2245  162.0018 N.ar    1  UNL1       -0.2824
      9 C         141.3029  144.0449  163.2807 C.ar    1  UNL1        0.1651
     10 N         141.6384  143.3342  164.5583 N.ar    1  UNL1       -0.2120
     11 H         140.9661  145.9869  159.1360 H       1  UNL1        0.1451
     12 H         142.4651  145.1908  159.3005 H       1  UNL1        0.1451
     13 C         141.9973  140.4808  170.8017 C.3     1  UNL1        0.0897
     14 N         141.6618  141.1915  169.5241 N.3     1  UNL1       -0.2686
     15 C         142.2924  140.7548  168.2350 C.3     1  UNL1        0.0939
     16 C         141.9569  141.4656  166.9573 C.3     1  UNL1        0.1095
     17 N         140.9908  142.6130  166.9688 N.pl3   1  UNL1       -0.2903
     18 C         140.3603  143.0497  168.2579 C.3     1  UNL1        0.1095
     19 C         140.6958  142.3390  169.5355 C.3     1  UNL1        0.0939
     20 C         143.4355  143.6872  161.7094 C.3     1  UNL1        0.1438
     21 C         143.6207  142.2293  161.4087 C.3     1  UNL1        0.1561
     22 O         143.6907  141.7601  159.9857 O.3     1  UNL1       -0.3780
     23 H         143.8116  140.7978  159.9682 H       1  UNL1        0.2109
     24 C         143.7360  141.2408  162.5309 C.ar    1  UNL1        0.0167
     25 C         145.0372  141.0821  163.2600 C.ar    1  UNL1       -0.0011
     26 C         145.1524  140.0935  164.3823 C.ar    1  UNL1        0.0037
     27 C         143.9665  139.2636  164.7755 C.ar    1  UNL1        0.0722
     28 C         142.6652  139.4223  164.0464 C.ar    1  UNL1        0.0150
     29 C         142.5500  140.4108  162.9242 C.ar    1  UNL1        0.0559
     30 CL        141.2488  140.5695  162.1951 Cl      1  UNL1       -0.0825
     31 C         144.0817  138.2751  165.8977 C.3     1  UNL1        0.4186
     32 F         144.1970  137.2865  167.0200 F       1  UNL1       -0.1659
     33 F         142.5863  138.2138  165.9973 F       1  UNL1       -0.1659
     34 F         145.5772  138.3363  165.7981 F       1  UNL1       -0.1659
@<TRIPOS>BOND
     1    13    14    1
     2    14    15    1
     3    15    16    1
     4    16    17    1
     5    17     1    1
     6     1     2   ar
     7     2     3   ar
     8     3     4   ar
     9     4     5   ar
    10     5     6   ar
    11     6     7    1
    12     6     8   ar
    13     8    20    1
    14    20    21    1
    15    21    22    1
    16    21    24    1
    17    24    25   ar
    18    25    26   ar
    19    26    27   ar
    20    27    31    1
    21    31    32    1
    22    31    33    1
    23    31    34    1
    24    27    28   ar
    25    28    29   ar
    26    29    30    1
    27     8     9   ar
    28     9    10   ar
    29    17    18    1
    30    18    19    1
    31    19    14    1
    32    10     1   ar
    33     9     4   ar
    34    29    24   ar
    35     7    11    1
    36     7    12    1
    37    22    23    1
@<TRIPOS>MOLECULE
*****
 34 37 0 0 0
SMALL
GASTEIGER

@<TRIPOS>ATOM
      1 C         141.3959  139.0607  165.4846 C.ar    1  UNL1        0.1335
      2 C         140.4446  138.0359  164.9418 C.ar    1  UNL1        0.0360
      3 C         140.5584  137.5885  163.5146 C.ar    1  UNL1        0.0251
      4 C         141.6236  138.1659  162.6303 C.ar    1  UNL1        0.1183
      5 N         141.9770  137.9205  161.1933 N.ar    1  UNL1       -0.2123
      6 C         143.1468  138.7936  160.8481 C.ar    1  UNL1        0.1959
      7 N         143.8276  138.8687  159.5135 N.pl3   1  UNL1       -0.3287
      8 N         143.5164  139.5786  162.0717 N.ar    1  UNL1       -0.2824
      9 C         142.5750  139.1906  163.1732 C.ar    1  UNL1        0.1651
     10 N         142.4611  139.6380  164.6003 N.ar    1  UNL1       -0.2120
     11 H         143.5102  138.3108  158.7670 H       1  UNL1        0.1451
     12 H         144.5917  139.4758  159.3841 H       1  UNL1        0.1451
     13 C         140.9408  140.8505  171.1934 C.3     1  UNL1        0.0897
     14 N         141.0545  140.4031  169.7662 N.3     1  UNL1       -0.2686
     15 C         139.8449  140.4102  168.8793 C.3     1  UNL1        0.0939
     16 C         139.9587  139.9628  167.4521 C.3     1  UNL1        0.1095
     17 N         141.2821  139.5082  166.9119 N.pl3   1  UNL1       -0.2903
     18 C         142.4918  139.5010  167.7988 C.3     1  UNL1        0.1095
     19 C         142.3780  139.9484  169.2260 C.3     1  UNL1        0.0939
     20 C         144.6315  140.5764  162.1756 C.3     1  UNL1        0.1438
     21 C         144.3521  142.0368  161.9778 C.3     1  UNL1        0.1561
     22 O         145.2512  142.8609  161.1046 O.3     1  UNL1       -0.3780
     23 H         144.9318  143.7766  161.0845 H       1  UNL1        0.2109
     24 C         143.1735  142.6731  162.6532 C.ar    1  UNL1        0.0167
     25 C         141.8776  142.8260  161.9134 C.ar    1  UNL1       -0.0011
     26 C         140.6990  143.4623  162.5888 C.ar    1  UNL1        0.0037
     27 C         140.8163  143.9458  164.0038 C.ar    1  UNL1        0.0722
     28 C         142.1123  143.7929  164.7436 C.ar    1  UNL1        0.0150
     29 C         143.2908  143.1566  164.0682 C.ar    1  UNL1        0.0559
     30 CL        144.5868  143.0038  164.8079 Cl      1  UNL1       -0.0825
     31 C         139.6378  144.5821  164.6792 C.3     1  UNL1        0.4186
     32 F         138.4592  145.2184  165.3545 F       1  UNL1       -0.1659
     33 F         139.3466  145.3651  163.4334 F       1  UNL1       -0.1659
     34 F         139.9289  143.7991  165.9250 F       1  UNL1       -0.1659
@<TRIPOS>BOND
     1    13    14    1
     2    14    15    1
     3    15    16    1
     4    16    17    1
     5    17     1    1
     6     1     2   ar
     7     2     3   ar
     8     3     4   ar
     9     4     5   ar
    10     5     6   ar
    11     6     7    1
    12     6     8   ar
    13     8    20    1
    14    20    21    1
    15    21    22    1
    16    21    24    1
    17    24    25   ar
    18    25    26   ar
    19    26    27   ar
    20    27    31    1
    21    31    32    1
    22    31    33    1
    23    31    34    1
    24    27    28   ar
    25    28    29   ar
    26    29    30    1
    27     8     9   ar
    28     9    10   ar
    29    17    18    1
    30    18    19    1
    31    19    14    1
    32    10     1   ar
    33     9     4   ar
    34    29    24   ar
    35     7    11    1
    36     7    12    1
    37    22    23    1
@<TRIPOS>MOLECULE
*****
 34 37 0 0 0
SMALL
GASTEIGER

@<TRIPOS>ATOM
      1 C         139.7625  142.8157  165.1916 C.ar    1  UNL1        0.1335
      2 C         138.4008  143.1743  164.6747 C.ar    1  UNL1        0.0360
      3 C         138.2590  143.8640  163.3503 C.ar    1  UNL1        0.0251
      4 C         139.4789  144.1952  162.5428 C.ar    1  UNL1        0.1183
      5 N         139.6501  144.8666  161.2123 N.ar    1  UNL1       -0.2123
      6 C         141.1176  144.9230  160.9070 C.ar    1  UNL1        0.1959
      7 N         141.7401  145.5124  159.6760 N.pl3   1  UNL1       -0.3287
      8 N         141.8534  144.2864  162.0486 N.ar    1  UNL1       -0.2824
      9 C         140.8406  143.8366  163.0596 C.ar    1  UNL1        0.1651
     10 N         140.9824  143.1469  164.3840 N.ar    1  UNL1       -0.2120
     11 H         141.1704  145.9097  158.9783 H       1  UNL1        0.1451
     12 H         142.7183  145.5020  159.5659 H       1  UNL1        0.1451
     13 C         140.3299  140.0567  170.4893 C.3     1  UNL1        0.0897
     14 N         140.1880  140.7464  169.1649 N.3     1  UNL1       -0.2686
     15 C         139.6710  139.9903  167.9771 C.3     1  UNL1        0.0939
     16 C         139.5292  140.6801  166.6526 C.3     1  UNL1        0.1095
     17 N         139.9044  142.1259  166.5160 N.pl3   1  UNL1       -0.2903
     18 C         140.4214  142.8821  167.7039 C.3     1  UNL1        0.1095
     19 C         140.5632  142.1923  169.0283 C.3     1  UNL1        0.0939
     20 C         143.3408  144.1275  162.1598 C.3     1  UNL1        0.1438
     21 C         143.9827  142.8161  161.8160 C.3     1  UNL1        0.1561
     22 O         145.1778  142.7808  160.9101 O.3     1  UNL1       -0.3780
     23 H         145.4667  141.8624  160.7916 H       1  UNL1        0.2109
     24 C         143.4297  141.5401  162.3780 C.ar    1  UNL1        0.0167
     25 C         142.3820  140.7791  161.6208 C.ar    1  UNL1       -0.0011
     26 C         141.8289  139.5030  162.1828 C.ar    1  UNL1        0.0037
     27 C         142.3234  138.9880  163.5019 C.ar    1  UNL1        0.0722
     28 C         143.3711  139.7490  164.2590 C.ar    1  UNL1        0.0150
     29 C         143.9242  141.0250  163.6971 C.ar    1  UNL1        0.0559
     30 CL        144.9718  141.7860  164.4542 Cl      1  UNL1       -0.0825
     31 C         141.7704  137.7119  164.0639 C.3     1  UNL1        0.4186
     32 F         141.2173  136.4359  164.6259 F       1  UNL1       -0.1659
     33 F         141.0489  137.4565  162.7739 F       1  UNL1       -0.1659
     34 F         142.4919  137.9674  165.3539 F       1  UNL1       -0.1659
@<TRIPOS>BOND
     1    13    14    1
     2    14    15    1
     3    15    16    1
     4    16    17    1
     5    17     1    1
     6     1     2   ar
     7     2     3   ar
     8     3     4   ar
     9     4     5   ar
    10     5     6   ar
    11     6     7    1
    12     6     8   ar
    13     8    20    1
    14    20    21    1
    15    21    22    1
    16    21    24    1
    17    24    25   ar
    18    25    26   ar
    19    26    27   ar
    20    27    31    1
    21    31    32    1
    22    31    33    1
    23    31    34    1
    24    27    28   ar
    25    28    29   ar
    26    29    30    1
    27     8     9   ar
    28     9    10   ar
    29    17    18    1
    30    18    19    1
    31    19    14    1
    32    10     1   ar
    33     9     4   ar
    34    29    24   ar
    35     7    11    1
    36     7    12    1
    37    22    23    1
@<TRIPOS>MOLECULE
*****
 34 37 0 0 0
SMALL
GASTEIGER

@<TRIPOS>ATOM
      1 C         139.3278  141.2399  165.6847 C.ar    1  UNL1        0.1335
      2 C         138.4117  140.1083  165.3239 C.ar    1  UNL1        0.0360
      3 C         137.8271  140.0271  163.9450 C.ar    1  UNL1        0.0251
      4 C         138.1585  141.0775  162.9268 C.ar    1  UNL1        0.1183
      5 N         137.7363  141.2600  161.4989 N.ar    1  UNL1       -0.2123
      6 C         138.3915  142.5044  160.9773 C.ar    1  UNL1        0.1959
      7 N         138.2453  143.0640  159.5933 N.pl3   1  UNL1       -0.3287
      8 N         139.2185  143.0910  162.0827 N.ar    1  UNL1       -0.2824
      9 C         139.0745  142.2092  163.2875 C.ar    1  UNL1        0.1651
     10 N         139.6592  142.2904  164.6665 N.ar    1  UNL1       -0.2120
     11 H         137.6766  142.6044  158.9340 H       1  UNL1        0.1451
     12 H         138.7180  143.8909  159.3442 H       1  UNL1        0.1451
     13 C         141.6664  141.5648  171.2006 C.3     1  UNL1        0.0897
     14 N         141.0818  141.4836  169.8216 N.3     1  UNL1       -0.2686
     15 C         141.3481  142.5758  168.8286 C.3     1  UNL1        0.0939
     16 C         140.7634  142.4946  167.4496 C.3     1  UNL1        0.1095
     17 N         139.9125  141.3212  167.0637 N.pl3   1  UNL1       -0.2903
     18 C         139.6461  140.2290  168.0568 C.3     1  UNL1        0.1095
     19 C         140.2308  140.3102  169.4357 C.3     1  UNL1        0.0939
     20 C         140.0446  144.3402  161.9981 C.3     1  UNL1        0.1438
     21 C         141.4928  144.2573  161.6164 C.3     1  UNL1        0.1561
     22 O         142.0587  145.2134  160.6086 O.3     1  UNL1       -0.3780
     23 H         143.0011  145.0245  160.4774 H       1  UNL1        0.2109
     24 C         142.3752  143.2183  162.2424 C.ar    1  UNL1        0.0167
     25 C         142.4060  141.8259  161.6852 C.ar    1  UNL1       -0.0011
     26 C         143.2883  140.7869  162.3112 C.ar    1  UNL1        0.0037
     27 C         144.1399  141.1401  163.4944 C.ar    1  UNL1        0.0722
     28 C         144.1090  142.5325  164.0516 C.ar    1  UNL1        0.0150
     29 C         143.2267  143.5715  163.4256 C.ar    1  UNL1        0.0559
     30 CL        143.1959  144.9638  163.9829 Cl      1  UNL1       -0.0825
     31 C         145.0222  140.1011  164.1204 C.3     1  UNL1        0.4186
     32 F         145.9046  139.0621  164.7465 F       1  UNL1       -0.1659
     33 F         146.1458  141.0929  164.1828 F       1  UNL1       -0.1659
     34 F         143.8986  139.1094  164.0581 F       1  UNL1       -0.1659
@<TRIPOS>BOND
     1    13    14    1
     2    14    15    1
     3    15    16    1
     4    16    17    1
     5    17     1    1
     6     1     2   ar
     7     2     3   ar
     8     3     4   ar
     9     4     5   ar
    10     5     6   ar
    11     6     7    1
    12     6     8   ar
    13     8    20    1
    14    20    21    1
    15    21    22    1
    16    21    24    1
    17    24    25   ar
    18    25    26   ar
    19    26    27   ar
    20    27    31    1
    21    31    32    1
    22    31    33    1
    23    31    34    1
    24    27    28   ar
    25    28    29   ar
    26    29    30    1
    27     8     9   ar
    28     9    10   ar
    29    17    18    1
    30    18    19    1
    31    19    14    1
    32    10     1   ar
    33     9     4   ar
    34    29    24   ar
    35     7    11    1
    36     7    12    1
    37    22    23    1
@<TRIPOS>MOLECULE
*****
 34 37 0 0 0
SMALL
GASTEIGER

@<TRIPOS>ATOM
      1 C         142.1613  139.3276  165.1832 C.ar    1  UNL1        0.1335
      2 C         143.6288  139.2926  164.8749 C.ar    1  UNL1        0.0360
      3 C         144.0940  139.0800  163.4648 C.ar    1  UNL1        0.0251
      4 C         143.0917  138.9026  162.3631 C.ar    1  UNL1        0.1183
      5 N         143.2504  138.6776  160.8885 N.ar    1  UNL1       -0.2123
      6 C         141.8809  138.5736  160.2855 C.ar    1  UNL1        0.1959
      7 N         141.5708  138.3485  158.8352 N.pl3   1  UNL1       -0.3287
      8 N         140.8759  138.7344  161.3874 N.ar    1  UNL1       -0.2824
      9 C         141.6242  138.9377  162.6713 C.ar    1  UNL1        0.1651
     10 N         141.1590  139.1502  164.0814 N.ar    1  UNL1       -0.2120
     11 H         142.3032  138.2546  158.1840 H       1  UNL1        0.1451
     12 H         140.6349  138.2945  158.5346 H       1  UNL1        0.1451
     13 C         140.3002  140.1777  170.8236 C.3     1  UNL1        0.0897
     14 N         140.7654  139.9652  169.4135 N.3     1  UNL1       -0.2686
     15 C         139.7997  140.1112  168.2751 C.3     1  UNL1        0.0939
     16 C         140.2650  139.8986  166.8649 C.3     1  UNL1        0.1095
     17 N         141.6960  139.5402  166.5933 N.pl3   1  UNL1       -0.2903
     18 C         142.6617  139.3942  167.7318 C.3     1  UNL1        0.1095
     19 C         142.1964  139.6068  169.1418 C.3     1  UNL1        0.0939
     20 C         139.3843  138.6981  161.2324 C.3     1  UNL1        0.1438
     21 C         138.6287  139.9627  160.9495 C.3     1  UNL1        0.1561
     22 O         137.8822  140.1172  159.6578 O.3     1  UNL1       -0.3780
     23 H         137.4521  140.9864  159.6349 H       1  UNL1        0.2109
     24 C         138.6197  141.0727  161.9584 C.ar    1  UNL1        0.0167
     25 C         137.5774  141.0976  163.0368 C.ar    1  UNL1       -0.0011
     26 C         137.5684  142.2076  164.0457 C.ar    1  UNL1        0.0037
     27 C         138.6016  143.2927  163.9762 C.ar    1  UNL1        0.0722
     28 C         139.6440  143.2677  162.8978 C.ar    1  UNL1        0.0150
     29 C         139.6530  142.1578  161.8890 C.ar    1  UNL1        0.0559
     30 CL        140.6954  142.1328  160.8106 Cl      1  UNL1       -0.0825
     31 C         138.5926  144.4027  164.9851 C.3     1  UNL1        0.4186
     32 F         138.5836  145.5126  165.9940 F       1  UNL1       -0.1659
     33 F         140.0847  144.5124  164.8777 F       1  UNL1       -0.1659
     34 F         137.1005  144.2929  165.0925 F       1  UNL1       -0.1659
@<TRIPOS>BOND
     1    13    14    1
     2    14    15    1
     3    15    16    1
     4    16    17    1
     5    17     1    1
     6     1     2   ar
     7     2     3   ar
     8     3     4   ar
     9     4     5   ar
    10     5     6   ar
    11     6     7    1
    12     6     8   ar
    13     8    20    1
    14    20    21    1
    15    21    22    1
    16    21    24    1
    17    24    25   ar
    18    25    26   ar
    19    26    27   ar
    20    27    31    1
    21    31    32    1
    22    31    33    1
    23    31    34    1
    24    27    28   ar
    25    28    29   ar
    26    29    30    1
    27     8     9   ar
    28     9    10   ar
    29    17    18    1
    30    18    19    1
    31    19    14    1
    32    10     1   ar
    33     9     4   ar
    34    29    24   ar
    35     7    11    1
    36     7    12    1
    37    22    23    1
