@<TRIPOS>MOLECULE
*****
 18 20 0 0 0
SMALL
GASTEIGER

@<TRIPOS>ATOM
      1 C         139.1856  138.2036  165.4785 C.3     1  UNL1        0.0896
      2 N         139.0571  139.6863  165.2910 N.3     1  UNL1       -0.2712
      3 C         138.0862  140.3791  164.3814 C.3     1  UNL1        0.0725
      4 C         138.3061  141.8575  164.5084 C.3     1  UNL1        0.0210
      5 C         137.6415  143.0311  163.8519 C.3     1  UNL1        0.0017
      6 C         138.0836  144.4255  164.1836 C.3     1  UNL1        0.0001
      7 C         139.1904  144.6463  165.1716 C.3     1  UNL1        0.0004
      8 C         139.8550  143.4728  165.8280 C.3     1  UNL1        0.0054
      9 C         139.4129  142.0783  165.4964 C.3     1  UNL1        0.0349
     10 C         139.8770  140.7365  165.9801 C.3     1  UNL1        0.0762
     11 C         140.5270  142.1430  166.4987 C.ar    1  UNL1       -0.0206
     12 C         141.9538  142.0972  166.0380 C.ar    1  UNL1       -0.0033
     13 C         143.0679  142.1618  167.0402 C.ar    1  UNL1        0.0119
     14 C         142.7553  142.2723  168.5031 C.ar    1  UNL1        0.0682
     15 CL        143.8695  142.3369  169.5054 Cl      1  UNL1       -0.0814
     16 C         141.3286  142.3181  168.9638 C.ar    1  UNL1        0.0679
     17 CL        141.0159  142.4286  170.4268 Cl      1  UNL1       -0.0814
     18 C         140.2144  142.2535  167.9615 C.ar    1  UNL1        0.0080
@<TRIPOS>BOND
     1     1     2    1
     2     2     3    1
     3     4     3    1
     4     4     5    1
     5     5     6    1
     6     6     7    1
     7     7     8    1
     8     8     9    1
     9     9    11    1
    10    11    12   ar
    11    12    13   ar
    12    13    14   ar
    13    14    15    1
    14    14    16   ar
    15    16    17    1
    16    16    18   ar
    17     9    10    1
    18    10     2    1
    19     9     4    1
    20    18    11   ar
@<TRIPOS>MOLECULE
*****
 18 20 0 0 0
SMALL
GASTEIGER

@<TRIPOS>ATOM
      1 C         138.9490  138.8545  164.2365 C.3     1  UNL1        0.0896
      2 N         139.2403  139.6102  165.4991 N.3     1  UNL1       -0.2712
      3 C         138.8460  139.1957  166.8857 C.3     1  UNL1        0.0725
      4 C         139.3392  140.2423  167.8403 C.3     1  UNL1        0.0210
      5 C         139.2419  140.3660  169.3320 C.3     1  UNL1        0.0017
      6 C         139.8438  141.5511  170.0271 C.3     1  UNL1        0.0001
      7 C         140.5430  142.6125  169.2305 C.3     1  UNL1        0.0004
      8 C         140.6402  142.4888  167.7388 C.3     1  UNL1        0.0054
      9 C         140.0383  141.3037  167.0437 C.3     1  UNL1        0.0349
     10 C         139.9772  140.9130  165.5968 C.3     1  UNL1        0.0762
     11 C         140.7032  142.2804  166.1195 C.ar    1  UNL1       -0.0206
     12 C         139.8891  143.3366  165.4327 C.ar    1  UNL1       -0.0033
     13 C         140.5539  144.3132  164.5085 C.ar    1  UNL1        0.0119
     14 C         142.0328  144.2336  164.2710 C.ar    1  UNL1        0.0682
     15 CL        142.6977  145.2102  163.3468 Cl      1  UNL1       -0.0814
     16 C         142.8469  143.1774  164.9577 C.ar    1  UNL1        0.0679
     17 CL        144.3260  143.0978  164.7203 Cl      1  UNL1       -0.0814
     18 C         142.1821  142.2008  165.8820 C.ar    1  UNL1        0.0080
@<TRIPOS>BOND
     1     1     2    1
     2     2     3    1
     3     4     3    1
     4     4     5    1
     5     5     6    1
     6     6     7    1
     7     7     8    1
     8     8     9    1
     9     9    11    1
    10    11    12   ar
    11    12    13   ar
    12    13    14   ar
    13    14    15    1
    14    14    16   ar
    15    16    17    1
    16    16    18   ar
    17     9    10    1
    18    10     2    1
    19     9     4    1
    20    18    11   ar
@<TRIPOS>MOLECULE
*****
 18 20 0 0 0
SMALL
GASTEIGER

@<TRIPOS>ATOM
      1 C         144.0642  139.8714  164.7097 C.3     1  UNL1        0.0896
      2 N         142.6677  139.4553  165.0654 N.3     1  UNL1       -0.2712
      3 C         141.9126  138.3034  164.4715 C.3     1  UNL1        0.0725
      4 C         140.5592  138.2543  165.1166 C.3     1  UNL1        0.0210
      5 C         139.3905  137.3332  164.9283 C.3     1  UNL1        0.0017
      6 C         138.1404  137.5336  165.7327 C.3     1  UNL1        0.0001
      7 C         138.0592  138.6552  166.7254 C.3     1  UNL1        0.0004
      8 C         139.2279  139.5763  166.9137 C.3     1  UNL1        0.0054
      9 C         140.4780  139.3759  166.1093 C.3     1  UNL1        0.0349
     10 C         141.7811  140.1181  166.0776 C.3     1  UNL1        0.0762
     11 C         140.5431  140.5348  167.0593 C.ar    1  UNL1       -0.0206
     12 C         140.2062  141.9162  166.5816 C.ar    1  UNL1       -0.0033
     13 C         140.2713  143.0750  167.5316 C.ar    1  UNL1        0.0119
     14 C         140.6735  142.8526  168.9594 C.ar    1  UNL1        0.0682
     15 CL        140.7386  144.0116  169.9095 Cl      1  UNL1       -0.0814
     16 C         141.0104  141.4713  169.4373 C.ar    1  UNL1        0.0679
     17 CL        141.4126  141.2489  170.8652 Cl      1  UNL1       -0.0814
     18 C         140.9453  140.3124  168.4872 C.ar    1  UNL1        0.0080
@<TRIPOS>BOND
     1     1     2    1
     2     2     3    1
     3     4     3    1
     4     4     5    1
     5     5     6    1
     6     6     7    1
     7     7     8    1
     8     8     9    1
     9     9    11    1
    10    11    12   ar
    11    12    13   ar
    12    13    14   ar
    13    14    15    1
    14    14    16   ar
    15    16    17    1
    16    16    18   ar
    17     9    10    1
    18    10     2    1
    19     9     4    1
    20    18    11   ar
@<TRIPOS>MOLECULE
*****
 18 20 0 0 0
SMALL
GASTEIGER

@<TRIPOS>ATOM
      1 C         138.2879  139.4509  165.7950 C.3     1  UNL1        0.0896
      2 N         139.2690  139.7430  166.8914 N.3     1  UNL1       -0.2712
      3 C         138.9556  139.8260  168.3559 C.3     1  UNL1        0.0725
      4 C         140.2287  140.1377  169.0855 C.3     1  UNL1        0.0210
      5 C         140.5282  140.3359  170.5418 C.3     1  UNL1        0.0017
      6 C         141.9279  140.6437  170.9845 C.3     1  UNL1        0.0001
      7 C         143.0281  140.7532  169.9708 C.3     1  UNL1        0.0004
      8 C         142.7286  140.5550  168.5145 C.3     1  UNL1        0.0054
      9 C         141.3289  140.2473  168.0718 C.3     1  UNL1        0.0349
     10 C         140.7358  140.0033  166.7158 C.3     1  UNL1        0.0762
     11 C         142.3205  140.3257  166.9491 C.ar    1  UNL1       -0.0206
     12 C         142.9169  139.0698  166.3860 C.ar    1  UNL1       -0.0033
     13 C         143.9084  139.1482  165.2633 C.ar    1  UNL1        0.0119
     14 C         144.3037  140.4825  164.7037 C.ar    1  UNL1        0.0682
     15 CL        145.2954  140.5610  163.5809 Cl      1  UNL1       -0.0814
     16 C         143.7074  141.7384  165.2666 C.ar    1  UNL1        0.0679
     17 CL        144.1027  143.0729  164.7069 Cl      1  UNL1       -0.0814
     18 C         142.7158  141.6600  166.3894 C.ar    1  UNL1        0.0080
@<TRIPOS>BOND
     1     1     2    1
     2     2     3    1
     3     4     3    1
     4     4     5    1
     5     5     6    1
     6     6     7    1
     7     7     8    1
     8     8     9    1
     9     9    11    1
    10    11    12   ar
    11    12    13   ar
    12    13    14   ar
    13    14    15    1
    14    14    16   ar
    15    16    17    1
    16    16    18   ar
    17     9    10    1
    18    10     2    1
    19     9     4    1
    20    18    11   ar
@<TRIPOS>MOLECULE
*****
 18 20 0 0 0
SMALL
GASTEIGER

@<TRIPOS>ATOM
      1 C         142.9876  140.6237  170.3123 C.3     1  UNL1        0.0896
      2 N         142.0490  140.3822  169.1675 N.3     1  UNL1       -0.2712
      3 C         140.6096  139.9747  169.2784 C.3     1  UNL1        0.0725
      4 C         140.0559  139.8463  167.8902 C.3     1  UNL1        0.0210
      5 C         138.6945  139.4730  167.3833 C.3     1  UNL1        0.0017
      6 C         138.4302  139.4279  165.9074 C.3     1  UNL1        0.0001
      7 C         139.5274  139.7560  164.9386 C.3     1  UNL1        0.0004
      8 C         140.8888  140.1293  165.4456 C.3     1  UNL1        0.0054
      9 C         141.1531  140.1744  166.9214 C.3     1  UNL1        0.0349
     10 C         142.3848  140.5056  167.7108 C.3     1  UNL1        0.0762
     11 C         142.3424  140.5260  166.0776 C.ar    1  UNL1       -0.0206
     12 C         143.1524  139.4401  165.4335 C.ar    1  UNL1       -0.0033
     13 C         144.3416  139.7917  164.5898 C.ar    1  UNL1        0.0119
     14 C         144.7208  141.2291  164.3899 C.ar    1  UNL1        0.0682
     15 CL        145.9101  141.5807  163.5461 Cl      1  UNL1       -0.0814
     16 C         143.9109  142.3150  165.0339 C.ar    1  UNL1        0.0679
     17 CL        144.2902  143.7525  164.8341 Cl      1  UNL1       -0.0814
     18 C         142.7216  141.9634  165.8778 C.ar    1  UNL1        0.0080
@<TRIPOS>BOND
     1     1     2    1
     2     2     3    1
     3     4     3    1
     4     4     5    1
     5     5     6    1
     6     6     7    1
     7     7     8    1
     8     8     9    1
     9     9    11    1
    10    11    12   ar
    11    12    13   ar
    12    13    14   ar
    13    14    15    1
    14    14    16   ar
    15    16    17    1
    16    16    18   ar
    17     9    10    1
    18    10     2    1
    19     9     4    1
    20    18    11   ar
@<TRIPOS>MOLECULE
*****
 18 20 0 0 0
SMALL
GASTEIGER

@<TRIPOS>ATOM
      1 C         145.6656  141.8624  163.5886 C.3     1  UNL1        0.0896
      2 N         144.3090  142.4074  163.9242 N.3     1  UNL1       -0.2712
      3 C         143.5673  143.4610  163.1563 C.3     1  UNL1        0.0725
      4 C         142.2558  143.6992  163.8442 C.3     1  UNL1        0.0210
      5 C         141.1155  144.6244  163.5384 C.3     1  UNL1        0.0017
      6 C         139.9063  144.6432  164.4257 C.3     1  UNL1        0.0001
      7 C         139.8374  143.7367  165.6188 C.3     1  UNL1        0.0004
      8 C         140.9777  142.8116  165.9247 C.3     1  UNL1        0.0054
      9 C         142.1869  142.7928  165.0374 C.3     1  UNL1        0.0349
     10 C         143.4559  141.9944  165.0868 C.3     1  UNL1        0.0762
     11 C         142.2602  141.8344  166.1890 C.ar    1  UNL1       -0.0206
     12 C         141.7228  140.4418  166.0411 C.ar    1  UNL1       -0.0033
     13 C         141.7961  139.4834  167.1926 C.ar    1  UNL1        0.0119
     14 C         142.4068  139.9176  168.4920 C.ar    1  UNL1        0.0682
     15 CL        142.4801  138.9591  169.6436 Cl      1  UNL1       -0.0814
     16 C         142.9442  141.3101  168.6399 C.ar    1  UNL1        0.0679
     17 CL        143.5550  141.7443  169.9394 Cl      1  UNL1       -0.0814
     18 C         142.8709  142.2685  167.4884 C.ar    1  UNL1        0.0080
@<TRIPOS>BOND
     1     1     2    1
     2     2     3    1
     3     4     3    1
     4     4     5    1
     5     5     6    1
     6     6     7    1
     7     7     8    1
     8     8     9    1
     9     9    11    1
    10    11    12   ar
    11    12    13   ar
    12    13    14   ar
    13    14    15    1
    14    14    16   ar
    15    16    17    1
    16    16    18   ar
    17     9    10    1
    18    10     2    1
    19     9     4    1
    20    18    11   ar
@<TRIPOS>MOLECULE
*****
 18 20 0 0 0
SMALL
GASTEIGER

@<TRIPOS>ATOM
      1 C         140.8351  142.4483  170.2908 C.3     1  UNL1        0.0896
      2 N         140.3115  141.6867  169.1093 N.3     1  UNL1       -0.2712
      3 C         139.4615  140.4520  169.1625 C.3     1  UNL1        0.0725
      4 C         139.1707  140.0284  167.7532 C.3     1  UNL1        0.0210
      5 C         138.3821  138.8824  167.1921 C.3     1  UNL1        0.0017
      6 C         138.2638  138.7094  165.7068 C.3     1  UNL1        0.0001
      7 C         138.9341  139.6824  164.7827 C.3     1  UNL1        0.0004
      8 C         139.7227  140.8284  165.3438 C.3     1  UNL1        0.0054
      9 C         139.8409  141.0013  166.8291 C.3     1  UNL1        0.0349
     10 C         140.5460  142.0263  167.6672 C.3     1  UNL1        0.0762
     11 C         140.5623  142.0486  166.0335 C.ar    1  UNL1       -0.0206
     12 C         139.8059  143.2132  165.4666 C.ar    1  UNL1       -0.0033
     13 C         140.5272  144.2604  164.6710 C.ar    1  UNL1        0.0119
     14 C         142.0050  144.1431  164.4424 C.ar    1  UNL1        0.0682
     15 CL        142.7263  145.1903  163.6468 Cl      1  UNL1       -0.0814
     16 C         142.7615  142.9785  165.0093 C.ar    1  UNL1        0.0679
     17 CL        144.2393  142.8611  164.7806 Cl      1  UNL1       -0.0814
     18 C         142.0401  141.9312  165.8048 C.ar    1  UNL1        0.0080
@<TRIPOS>BOND
     1     1     2    1
     2     2     3    1
     3     4     3    1
     4     4     5    1
     5     5     6    1
     6     6     7    1
     7     7     8    1
     8     8     9    1
     9     9    11    1
    10    11    12   ar
    11    12    13   ar
    12    13    14   ar
    13    14    15    1
    14    14    16   ar
    15    16    17    1
    16    16    18   ar
    17     9    10    1
    18    10     2    1
    19     9     4    1
    20    18    11   ar
@<TRIPOS>MOLECULE
*****
 18 20 0 0 0
SMALL
GASTEIGER

@<TRIPOS>ATOM
      1 C         144.0476  140.9465  164.7277 C.3     1  UNL1        0.0896
      2 N         142.7584  141.7107  164.6638 N.3     1  UNL1       -0.2712
      3 C         142.6122  143.1674  164.3372 C.3     1  UNL1        0.0725
      4 C         141.1525  143.5093  164.3869 C.3     1  UNL1        0.0210
      5 C         140.4141  144.7938  164.1530 C.3     1  UNL1        0.0017
      6 C         138.9197  144.8329  164.2763 C.3     1  UNL1        0.0001
      7 C         138.1638  143.5875  164.6335 C.3     1  UNL1        0.0004
      8 C         138.9022  142.3031  164.8675 C.3     1  UNL1        0.0054
      9 C         140.3966  142.2640  164.7442 C.3     1  UNL1        0.0349
     10 C         141.3891  141.1523  164.9153 C.3     1  UNL1        0.0762
     11 C         139.7796  140.9455  165.1061 C.ar    1  UNL1       -0.0206
     12 C         139.4166  140.6535  166.5320 C.ar    1  UNL1       -0.0033
     13 C         138.7996  139.3352  166.8939 C.ar    1  UNL1        0.0119
     14 C         138.5455  138.3087  165.8301 C.ar    1  UNL1        0.0682
     15 CL        137.9285  136.9903  166.1920 Cl      1  UNL1       -0.0814
     16 C         138.9085  138.6006  164.4043 C.ar    1  UNL1        0.0679
     17 CL        138.6544  137.5741  163.3403 Cl      1  UNL1       -0.0814
     18 C         139.5255  139.9191  164.0423 C.ar    1  UNL1        0.0080
@<TRIPOS>BOND
     1     1     2    1
     2     2     3    1
     3     4     3    1
     4     4     5    1
     5     5     6    1
     6     6     7    1
     7     7     8    1
     8     8     9    1
     9     9    11    1
    10    11    12   ar
    11    12    13   ar
    12    13    14   ar
    13    14    15    1
    14    14    16   ar
    15    16    17    1
    16    16    18   ar
    17     9    10    1
    18    10     2    1
    19     9     4    1
    20    18    11   ar
@<TRIPOS>MOLECULE
*****
 18 20 0 0 0
SMALL
GASTEIGER

@<TRIPOS>ATOM
      1 C         139.9763  143.9708  164.7216 C.3     1  UNL1        0.0896
      2 N         139.7697  142.4955  164.5462 N.3     1  UNL1       -0.2712
      3 C         139.1469  141.8278  163.3561 C.3     1  UNL1        0.0725
      4 C         139.1419  140.3485  163.6044 C.3     1  UNL1        0.0210
      5 C         138.6531  139.1942  162.7807 C.3     1  UNL1        0.0017
      6 C         138.7841  137.7933  163.3006 C.3     1  UNL1        0.0001
      7 C         139.4038  137.5467  164.6441 C.3     1  UNL1        0.0004
      8 C         139.8926  138.7010  165.4678 C.3     1  UNL1        0.0054
      9 C         139.7617  140.1019  164.9480 C.3     1  UNL1        0.0349
     10 C         140.1496  141.4289  165.5300 C.3     1  UNL1        0.0762
     11 C         140.3996  140.0109  166.3025 C.ar    1  UNL1       -0.0206
     12 C         141.8695  139.7374  166.4224 C.ar    1  UNL1       -0.0033
     13 C         142.5074  139.6464  167.7769 C.ar    1  UNL1        0.0119
     14 C         141.6754  139.8289  169.0116 C.ar    1  UNL1        0.0682
     15 CL        142.3133  139.7379  170.3661 Cl      1  UNL1       -0.0814
     16 C         140.2055  140.1025  168.8917 C.ar    1  UNL1        0.0679
     17 CL        139.3734  140.2851  170.1264 Cl      1  UNL1       -0.0814
     18 C         139.5676  140.1935  167.5372 C.ar    1  UNL1        0.0080
@<TRIPOS>BOND
     1     1     2    1
     2     2     3    1
     3     4     3    1
     4     4     5    1
     5     5     6    1
     6     6     7    1
     7     7     8    1
     8     8     9    1
     9     9    11    1
    10    11    12   ar
    11    12    13   ar
    12    13    14   ar
    13    14    15    1
    14    14    16   ar
    15    16    17    1
    16    16    18   ar
    17     9    10    1
    18    10     2    1
    19     9     4    1
    20    18    11   ar
