@<TRIPOS>MOLECULE
*****
 24 27 0 0 0
SMALL
GASTEIGER

@<TRIPOS>ATOM
      1 C         141.1846  140.0650  169.5436 C.3     1  UNL1        0.0746
      2 C         142.5638  139.4913  169.6800 C.3     1  UNL1        0.2101
      3 O         143.0504  139.1234  168.3097 O.3     1  UNL1       -0.4753
      4 C         141.9719  139.4698  167.3263 C.ar    1  UNL1        0.1379
      5 C         141.8909  139.3304  165.8350 C.ar    1  UNL1        0.0766
      6 C         140.6567  139.7730  165.1063 C.ar    1  UNL1        0.1757
      7 C         139.5036  140.3550  165.8690 C.ar    1  UNL1        0.1723
      8 C         139.5846  140.4943  167.3603 C.ar    1  UNL1        0.0389
      9 C         140.8188  140.0517  168.0890 C.ar    1  UNL1        0.0187
     10 O         138.2695  140.7975  165.1403 O.3     1  UNL1       -0.4681
     11 C         138.1885  140.6582  163.6490 C.3     1  UNL1        0.2533
     12 C         139.3416  140.0763  162.8864 C.3     1  UNL1        0.2317
     13 O         140.5757  139.6337  163.6150 O.3     1  UNL1       -0.4677
     14 C         139.2605  139.9369  161.3950 C.ar    1  UNL1        0.0214
     15 C         138.0677  140.4669  160.6560 C.ar    1  UNL1       -0.0007
     16 C         137.9867  140.3276  159.1646 C.ar    1  UNL1        0.0003
     17 C         139.0985  139.6582  158.4124 C.ar    1  UNL1        0.0067
     18 C         140.2913  139.1282  159.1515 C.ar    1  UNL1        0.0344
     19 BR        141.4031  138.4588  158.3993 Br      1  UNL1       -0.0490
     20 C         140.3723  139.2675  160.6428 C.ar    1  UNL1        0.0060
     21 C         140.3225  140.5644  170.6650 C.3     1  UNL1        0.0499
     22 O         141.8919  142.2642  171.8471 O.co2   1  UNL1       -0.5492
     23 C         140.5604  141.9275  171.2441 C.2     1  UNL1        0.0508
     24 O         139.4668  142.9539  171.2202 O.co2   1  UNL1       -0.5492
@<TRIPOS>UNITY_ATOM_ATTR
22 1
charge -1
@<TRIPOS>BOND
     1    22    23   ar
     2    23    24   ar
     3    23    21    1
     4     1    21    1
     5     1     2    1
     6     2     3    1
     7     3     4    1
     8     4     5   ar
     9     5     6   ar
    10     6     7   ar
    11     7     8   ar
    12     8     9   ar
    13     7    10    1
    14    10    11    1
    15    11    12    1
    16    12    14    1
    17    14    15   ar
    18    15    16   ar
    19    16    17   ar
    20    17    18   ar
    21    18    19    1
    22    18    20   ar
    23    12    13    1
    24     9     1    1
    25    20    14   ar
    26     9     4   ar
    27    13     6    1
@<TRIPOS>MOLECULE
*****
 24 27 0 0 0
SMALL
GASTEIGER

@<TRIPOS>ATOM
      1 C         141.2283  142.1974  168.2030 C.3     1  UNL1        0.0746
      2 C         142.7133  142.1507  168.4093 C.3     1  UNL1        0.2101
      3 O         143.3730  142.3750  167.0809 O.3     1  UNL1       -0.4753
      4 C         142.2958  142.5602  166.0537 C.ar    1  UNL1        0.1379
      5 C         142.3506  142.8147  164.5765 C.ar    1  UNL1        0.0766
      6 C         141.0798  142.9594  163.7927 C.ar    1  UNL1        0.1757
      7 C         139.7543  142.8497  164.4862 C.ar    1  UNL1        0.1723
      8 C         139.6995  142.5952  165.9635 C.ar    1  UNL1        0.0389
      9 C         140.9702  142.4505  166.7472 C.ar    1  UNL1        0.0187
     10 O         138.4835  142.9944  163.7025 O.3     1  UNL1       -0.4681
     11 C         138.5383  143.2488  162.2253 C.3     1  UNL1        0.2533
     12 C         139.8639  143.3585  161.5318 C.3     1  UNL1        0.2317
     13 O         141.1346  143.2138  162.3155 O.3     1  UNL1       -0.4677
     14 C         139.9186  143.6130  160.0545 C.ar    1  UNL1        0.0214
     15 C         138.9791  142.8919  159.1339 C.ar    1  UNL1       -0.0007
     16 C         139.0339  143.1464  157.6566 C.ar    1  UNL1        0.0003
     17 C         140.0282  144.1219  157.1000 C.ar    1  UNL1        0.0067
     18 C         140.9677  144.8429  158.0206 C.ar    1  UNL1        0.0344
     19 BR        141.9619  145.8184  157.4639 Br      1  UNL1       -0.0490
     20 C         140.9129  144.5884  159.4978 C.ar    1  UNL1        0.0060
     21 C         140.1846  142.0219  169.2660 C.3     1  UNL1        0.0499
     22 O         140.0115  144.3853  170.3310 O.co2   1  UNL1       -0.5492
     23 C         140.1940  142.9038  170.4792 C.2     1  UNL1        0.0508
     24 O         140.3859  142.3044  171.8408 O.co2   1  UNL1       -0.5492
@<TRIPOS>UNITY_ATOM_ATTR
22 1
charge -1
@<TRIPOS>BOND
     1    22    23   ar
     2    23    24   ar
     3    23    21    1
     4     1    21    1
     5     1     2    1
     6     2     3    1
     7     3     4    1
     8     4     5   ar
     9     5     6   ar
    10     6     7   ar
    11     7     8   ar
    12     8     9   ar
    13     7    10    1
    14    10    11    1
    15    11    12    1
    16    12    14    1
    17    14    15   ar
    18    15    16   ar
    19    16    17   ar
    20    17    18   ar
    21    18    19    1
    22    18    20   ar
    23    12    13    1
    24     9     1    1
    25    20    14   ar
    26     9     4   ar
    27    13     6    1
@<TRIPOS>MOLECULE
*****
 24 27 0 0 0
SMALL
GASTEIGER

@<TRIPOS>ATOM
      1 C         140.6305  141.0466  168.7201 C.3     1  UNL1        0.0746
      2 C         141.5825  139.9011  168.8979 C.3     1  UNL1        0.2101
      3 O         142.3398  139.7246  167.6152 O.3     1  UNL1       -0.4753
      4 C         141.8560  140.7609  166.6447 C.ar    1  UNL1        0.1379
      5 C         142.2408  141.0661  165.2275 C.ar    1  UNL1        0.0766
      6 C         141.5693  142.1885  164.4930 C.ar    1  UNL1        0.1757
      7 C         140.5128  143.0056  165.1759 C.ar    1  UNL1        0.1723
      8 C         140.1280  142.7003  166.5932 C.ar    1  UNL1        0.0389
      9 C         140.7995  141.5780  167.3276 C.ar    1  UNL1        0.0187
     10 O         139.8413  144.1279  164.4415 O.3     1  UNL1       -0.4681
     11 C         140.2262  144.4331  163.0242 C.3     1  UNL1        0.2533
     12 C         141.2826  143.6160  162.3414 C.3     1  UNL1        0.2317
     13 O         141.9542  142.4937  163.0758 O.3     1  UNL1       -0.4677
     14 C         141.6675  143.9213  160.9240 C.ar    1  UNL1        0.0214
     15 C         140.9818  145.0306  160.1830 C.ar    1  UNL1       -0.0007
     16 C         141.3667  145.3359  158.7657 C.ar    1  UNL1        0.0003
     17 C         142.4372  144.5317  158.0894 C.ar    1  UNL1        0.0067
     18 C         143.1229  143.4223  158.8305 C.ar    1  UNL1        0.0344
     19 BR        144.1934  142.6181  158.1543 Br      1  UNL1       -0.0490
     20 C         142.7380  143.1171  160.2478 C.ar    1  UNL1        0.0060
     21 C         139.6769  141.5691  169.7534 C.3     1  UNL1        0.0499
     22 O         140.0344  144.0787  170.3226 O.co2   1  UNL1       -0.5492
     23 C         140.1202  142.6330  170.7133 C.2     1  UNL1        0.0508
     24 O         140.6494  142.2514  172.0641 O.co2   1  UNL1       -0.5492
@<TRIPOS>UNITY_ATOM_ATTR
22 1
charge -1
@<TRIPOS>BOND
     1    22    23   ar
     2    23    24   ar
     3    23    21    1
     4     1    21    1
     5     1     2    1
     6     2     3    1
     7     3     4    1
     8     4     5   ar
     9     5     6   ar
    10     6     7   ar
    11     7     8   ar
    12     8     9   ar
    13     7    10    1
    14    10    11    1
    15    11    12    1
    16    12    14    1
    17    14    15   ar
    18    15    16   ar
    19    16    17   ar
    20    17    18   ar
    21    18    19    1
    22    18    20   ar
    23    12    13    1
    24     9     1    1
    25    20    14   ar
    26     9     4   ar
    27    13     6    1
@<TRIPOS>MOLECULE
*****
 24 27 0 0 0
SMALL
GASTEIGER

@<TRIPOS>ATOM
      1 C         139.1284  139.8831  167.4732 C.3     1  UNL1        0.0746
      2 C         138.0851  138.8250  167.2685 C.3     1  UNL1        0.2101
      3 O         137.6301  138.8928  165.8408 O.3     1  UNL1       -0.4753
      4 C         138.3922  139.9927  165.1631 C.ar    1  UNL1        0.1379
      5 C         138.3627  140.5160  163.7577 C.ar    1  UNL1        0.0766
      6 C         139.2591  141.6515  163.3611 C.ar    1  UNL1        0.1757
      7 C         140.1851  142.2636  164.3700 C.ar    1  UNL1        0.1723
      8 C         140.2147  141.7402  165.7755 C.ar    1  UNL1        0.0389
      9 C         139.3182  140.6048  166.1720 C.ar    1  UNL1        0.0187
     10 O         141.0815  143.3990  163.9735 O.3     1  UNL1       -0.4681
     11 C         141.0519  143.9223  162.5681 C.3     1  UNL1        0.2533
     12 C         140.1259  143.3102  161.5592 C.3     1  UNL1        0.2317
     13 O         139.2295  142.1748  161.9557 O.3     1  UNL1       -0.4677
     14 C         140.0964  143.8336  160.1537 C.ar    1  UNL1        0.0214
     15 C         140.7777  145.1278  159.8209 C.ar    1  UNL1       -0.0007
     16 C         140.7482  145.6512  158.4154 C.ar    1  UNL1        0.0003
     17 C         140.0373  144.8803  157.3429 C.ar    1  UNL1        0.0067
     18 C         139.3559  143.5861  157.6758 C.ar    1  UNL1        0.0344
     19 BR        138.6450  142.8152  156.6032 Br      1  UNL1       -0.0490
     20 C         139.3855  143.0628  159.0812 C.ar    1  UNL1        0.0060
     21 C         139.8544  140.1693  168.7542 C.3     1  UNL1        0.0499
     22 O         138.1215  139.6713  170.6247 O.co2   1  UNL1       -0.5492
     23 C         139.0899  140.6094  169.9674 C.2     1  UNL1        0.0508
     24 O         139.2938  141.9877  170.5233 O.co2   1  UNL1       -0.5492
@<TRIPOS>UNITY_ATOM_ATTR
22 1
charge -1
@<TRIPOS>BOND
     1    22    23   ar
     2    23    24   ar
     3    23    21    1
     4     1    21    1
     5     1     2    1
     6     2     3    1
     7     3     4    1
     8     4     5   ar
     9     5     6   ar
    10     6     7   ar
    11     7     8   ar
    12     8     9   ar
    13     7    10    1
    14    10    11    1
    15    11    12    1
    16    12    14    1
    17    14    15   ar
    18    15    16   ar
    19    16    17   ar
    20    17    18   ar
    21    18    19    1
    22    18    20   ar
    23    12    13    1
    24     9     1    1
    25    20    14   ar
    26     9     4   ar
    27    13     6    1
@<TRIPOS>MOLECULE
*****
 24 27 0 0 0
SMALL
GASTEIGER

@<TRIPOS>ATOM
      1 C         140.8758  140.4593  169.1585 C.3     1  UNL1        0.0746
      2 C         142.1536  139.9650  169.7692 C.3     1  UNL1        0.2101
      3 O         142.9880  139.3653  168.6765 O.3     1  UNL1       -0.4753
      4 C         142.2260  139.4891  167.3904 C.ar    1  UNL1        0.1379
      5 C         142.5521  139.0735  165.9865 C.ar    1  UNL1        0.0766
      6 C         141.5729  139.3340  164.8805 C.ar    1  UNL1        0.1757
      7 C         140.2675  140.0102  165.1784 C.ar    1  UNL1        0.1723
      8 C         139.9413  140.4258  166.5823 C.ar    1  UNL1        0.0389
      9 C         140.9206  140.1653  167.6883 C.ar    1  UNL1        0.0187
     10 O         139.2882  140.2707  164.0725 O.3     1  UNL1       -0.4681
     11 C         139.6144  139.8551  162.6686 C.3     1  UNL1        0.2533
     12 C         140.9198  139.1789  162.3707 C.3     1  UNL1        0.2317
     13 O         141.8990  138.9184  163.4766 O.3     1  UNL1       -0.4677
     14 C         141.2459  138.7633  160.9668 C.ar    1  UNL1        0.0214
     15 C         142.5119  138.0109  160.6823 C.ar    1  UNL1       -0.0007
     16 C         142.8381  137.5952  159.2783 C.ar    1  UNL1        0.0003
     17 C         141.8981  137.9321  158.1589 C.ar    1  UNL1        0.0067
     18 C         140.6321  138.6846  158.4435 C.ar    1  UNL1        0.0344
     19 BR        139.6921  139.0215  157.3241 Br      1  UNL1       -0.0490
     20 C         140.3060  139.1002  159.8474 C.ar    1  UNL1        0.0060
     21 C         139.7508  141.1301  169.8896 C.3     1  UNL1        0.0499
     22 O         140.4021  142.2316  172.1506 O.co2   1  UNL1       -0.5492
     23 C         140.0151  142.3596  170.7071 C.2     1  UNL1        0.0508
     24 O         139.8925  143.7173  170.0811 O.co2   1  UNL1       -0.5492
@<TRIPOS>UNITY_ATOM_ATTR
22 1
charge -1
@<TRIPOS>BOND
     1    22    23   ar
     2    23    24   ar
     3    23    21    1
     4     1    21    1
     5     1     2    1
     6     2     3    1
     7     3     4    1
     8     4     5   ar
     9     5     6   ar
    10     6     7   ar
    11     7     8   ar
    12     8     9   ar
    13     7    10    1
    14    10    11    1
    15    11    12    1
    16    12    14    1
    17    14    15   ar
    18    15    16   ar
    19    16    17   ar
    20    17    18   ar
    21    18    19    1
    22    18    20   ar
    23    12    13    1
    24     9     1    1
    25    20    14   ar
    26     9     4   ar
    27    13     6    1
@<TRIPOS>MOLECULE
*****
 24 27 0 0 0
SMALL
GASTEIGER

@<TRIPOS>ATOM
      1 C         140.9658  140.2576  169.2166 C.3     1  UNL1        0.0746
      2 C         142.0153  139.4079  169.8696 C.3     1  UNL1        0.2101
      3 O         142.9453  138.9164  168.8002 O.3     1  UNL1       -0.4753
      4 C         142.4704  139.4624  167.4862 C.ar    1  UNL1        0.1379
      5 C         142.9940  139.3119  166.0887 C.ar    1  UNL1        0.0766
      6 C         142.2942  139.9903  164.9484 C.ar    1  UNL1        0.1757
      7 C         141.0708  140.8191  165.2058 C.ar    1  UNL1        0.1723
      8 C         140.5472  140.9697  166.6034 C.ar    1  UNL1        0.0389
      9 C         141.2471  140.2913  167.7436 C.ar    1  UNL1        0.0187
     10 O         140.3710  141.4975  164.0656 O.3     1  UNL1       -0.4681
     11 C         140.8946  141.3470  162.6681 C.3     1  UNL1        0.2533
     12 C         142.1179  140.5181  162.4107 C.3     1  UNL1        0.2317
     13 O         142.8178  139.8397  163.5509 O.3     1  UNL1       -0.4677
     14 C         142.6415  140.3676  161.0131 C.ar    1  UNL1        0.0214
     15 C         142.4104  139.0917  160.2589 C.ar    1  UNL1       -0.0007
     16 C         142.9340  138.9412  158.8613 C.ar    1  UNL1        0.0003
     17 C         143.6886  140.0666  158.2179 C.ar    1  UNL1        0.0067
     18 C         143.9197  141.3425  158.9721 C.ar    1  UNL1        0.0344
     19 BR        144.6744  142.4678  158.3287 Br      1  UNL1       -0.0490
     20 C         143.3962  141.4929  160.3697 C.ar    1  UNL1        0.0060
     21 C         139.8337  140.9518  169.9141 C.3     1  UNL1        0.0499
     22 O         140.4679  142.2559  172.0698 O.co2   1  UNL1       -0.5492
     23 C         140.0737  142.2520  170.6225 C.2     1  UNL1        0.0508
     24 O         139.9195  143.5483  169.8838 O.co2   1  UNL1       -0.5492
@<TRIPOS>UNITY_ATOM_ATTR
22 1
charge -1
@<TRIPOS>BOND
     1    22    23   ar
     2    23    24   ar
     3    23    21    1
     4     1    21    1
     5     1     2    1
     6     2     3    1
     7     3     4    1
     8     4     5   ar
     9     5     6   ar
    10     6     7   ar
    11     7     8   ar
    12     8     9   ar
    13     7    10    1
    14    10    11    1
    15    11    12    1
    16    12    14    1
    17    14    15   ar
    18    15    16   ar
    19    16    17   ar
    20    17    18   ar
    21    18    19    1
    22    18    20   ar
    23    12    13    1
    24     9     1    1
    25    20    14   ar
    26     9     4   ar
    27    13     6    1
@<TRIPOS>MOLECULE
*****
 24 27 0 0 0
SMALL
GASTEIGER

@<TRIPOS>ATOM
      1 C         141.1218  140.1930  169.4894 C.3     1  UNL1        0.0746
      2 C         142.1443  139.2794  170.0975 C.3     1  UNL1        0.2101
      3 O         143.0366  138.7851  168.9977 O.3     1  UNL1       -0.4753
      4 C         142.5656  139.3932  167.7099 C.ar    1  UNL1        0.1379
      5 C         143.0614  139.2671  166.2999 C.ar    1  UNL1        0.0766
      6 C         142.3738  140.0110  165.1937 C.ar    1  UNL1        0.1757
      7 C         141.1903  140.8812  165.4975 C.ar    1  UNL1        0.1723
      8 C         140.6945  141.0073  166.9076 C.ar    1  UNL1        0.0389
      9 C         141.3822  140.2634  168.0138 C.ar    1  UNL1        0.0187
     10 O         140.5027  141.6251  164.3914 O.3     1  UNL1       -0.4681
     11 C         140.9985  141.4989  162.9813 C.3     1  UNL1        0.2533
     12 C         142.1819  140.6288  162.6775 C.3     1  UNL1        0.2317
     13 O         142.8696  139.8848  163.7836 O.3     1  UNL1       -0.4677
     14 C         142.6777  140.5026  161.2674 C.ar    1  UNL1        0.0214
     15 C         143.4785  141.6116  160.6519 C.ar    1  UNL1       -0.0007
     16 C         143.9743  141.4854  159.2417 C.ar    1  UNL1        0.0003
     17 C         143.6693  140.2502  158.4472 C.ar    1  UNL1        0.0067
     18 C         142.8684  139.1412  159.0628 C.ar    1  UNL1        0.0344
     19 BR        142.5634  137.9061  158.2682 Br      1  UNL1       -0.0490
     20 C         142.3727  139.2674  160.4728 C.ar    1  UNL1        0.0060
     21 C         140.0305  140.9104  170.2273 C.3     1  UNL1        0.0499
     22 O         139.3612  143.2731  171.0754 O.co2   1  UNL1       -0.5492
     23 C         140.3466  142.1436  171.0205 C.2     1  UNL1        0.0508
     24 O         141.6482  142.2474  171.7589 O.co2   1  UNL1       -0.5492
@<TRIPOS>UNITY_ATOM_ATTR
22 1
charge -1
@<TRIPOS>BOND
     1    22    23   ar
     2    23    24   ar
     3    23    21    1
     4     1    21    1
     5     1     2    1
     6     2     3    1
     7     3     4    1
     8     4     5   ar
     9     5     6   ar
    10     6     7   ar
    11     7     8   ar
    12     8     9   ar
    13     7    10    1
    14    10    11    1
    15    11    12    1
    16    12    14    1
    17    14    15   ar
    18    15    16   ar
    19    16    17   ar
    20    17    18   ar
    21    18    19    1
    22    18    20   ar
    23    12    13    1
    24     9     1    1
    25    20    14   ar
    26     9     4   ar
    27    13     6    1
@<TRIPOS>MOLECULE
*****
 24 27 0 0 0
SMALL
GASTEIGER

@<TRIPOS>ATOM
      1 C         140.4260  141.4373  168.4026 C.3     1  UNL1        0.0746
      2 C         139.6176  140.1904  168.6067 C.3     1  UNL1        0.2101
      3 O         139.0173  139.8060  167.2869 O.3     1  UNL1       -0.4753
      4 C         139.4548  140.8153  166.2671 C.ar    1  UNL1        0.1379
      5 C         139.1728  140.9466  164.7997 C.ar    1  UNL1        0.0766
      6 C         139.7615  142.0861  164.0218 C.ar    1  UNL1        0.1757
      7 C         140.6322  143.0943  164.7114 C.ar    1  UNL1        0.1723
      8 C         140.9141  142.9630  166.1788 C.ar    1  UNL1        0.0389
      9 C         140.3254  141.8235  166.9566 C.ar    1  UNL1        0.0187
     10 O         141.2209  144.2337  163.9335 O.3     1  UNL1       -0.4681
     11 C         140.9389  144.3649  162.4662 C.3     1  UNL1        0.2533
     12 C         140.0683  143.3567  161.7766 C.3     1  UNL1        0.2317
     13 O         139.4796  142.2173  162.5544 O.3     1  UNL1       -0.4677
     14 C         139.7863  143.4880  160.3092 C.ar    1  UNL1        0.0214
     15 C         138.8867  142.5005  159.6270 C.ar    1  UNL1       -0.0007
     16 C         138.6048  142.6317  158.1595 C.ar    1  UNL1        0.0003
     17 C         139.2225  143.7506  157.3743 C.ar    1  UNL1        0.0067
     18 C         140.1221  144.7382  158.0566 C.ar    1  UNL1        0.0344
     19 BR        140.7398  145.8571  157.2714 Br      1  UNL1       -0.0490
     20 C         140.4040  144.6069  159.5240 C.ar    1  UNL1        0.0060
     21 C         141.1994  142.1695  169.4589 C.3     1  UNL1        0.0499
     22 O         140.3518  142.1978  171.9147 O.co2   1  UNL1       -0.5492
     23 C         140.4744  142.8614  170.5751 C.2     1  UNL1        0.0508
     24 O         139.8721  144.2169  170.3516 O.co2   1  UNL1       -0.5492
@<TRIPOS>UNITY_ATOM_ATTR
22 1
charge -1
@<TRIPOS>BOND
     1    22    23   ar
     2    23    24   ar
     3    23    21    1
     4     1    21    1
     5     1     2    1
     6     2     3    1
     7     3     4    1
     8     4     5   ar
     9     5     6   ar
    10     6     7   ar
    11     7     8   ar
    12     8     9   ar
    13     7    10    1
    14    10    11    1
    15    11    12    1
    16    12    14    1
    17    14    15   ar
    18    15    16   ar
    19    16    17   ar
    20    17    18   ar
    21    18    19    1
    22    18    20   ar
    23    12    13    1
    24     9     1    1
    25    20    14   ar
    26     9     4   ar
    27    13     6    1
@<TRIPOS>MOLECULE
*****
 24 27 0 0 0
SMALL
GASTEIGER

@<TRIPOS>ATOM
      1 C         140.0494  141.0832  168.8130 C.3     1  UNL1        0.0746
      2 C         139.1029  140.0827  169.4074 C.3     1  UNL1        0.2101
      3 O         138.4998  139.2914  168.2848 O.3     1  UNL1       -0.4753
      4 C         139.0736  139.8028  166.9966 C.ar    1  UNL1        0.1379
      5 C         138.8478  139.4032  165.5686 C.ar    1  UNL1        0.0766
      6 C         139.5796  140.1109  164.4670 C.ar    1  UNL1        0.1757
      7 C         140.5373  141.2183  164.7935 C.ar    1  UNL1        0.1723
      8 C         140.7632  141.6179  166.2216 C.ar    1  UNL1        0.0389
      9 C         140.0313  140.9102  167.3231 C.ar    1  UNL1        0.0187
     10 O         141.2692  141.9260  163.6919 O.3     1  UNL1       -0.4681
     11 C         141.0433  141.5264  162.2639 C.3     1  UNL1        0.2533
     12 C         140.0857  140.4191  161.9374 C.3     1  UNL1        0.2317
     13 O         139.3538  139.7113  163.0390 O.3     1  UNL1       -0.4677
     14 C         139.8598  140.0194  160.5093 C.ar    1  UNL1        0.0214
     15 C         140.6283  138.8737  159.9207 C.ar    1  UNL1       -0.0007
     16 C         140.4025  138.4741  158.4925 C.ar    1  UNL1        0.0003
     17 C         139.4082  139.2203  157.6532 C.ar    1  UNL1        0.0067
     18 C         138.6397  140.3661  158.2420 C.ar    1  UNL1        0.0344
     19 BR        137.6453  141.1123  157.4026 Br      1  UNL1       -0.0490
     20 C         138.8655  140.7657  159.6700 C.ar    1  UNL1        0.0060
     21 C         140.8699  142.0814  169.5748 C.3     1  UNL1        0.0499
     22 O         139.5727  144.0831  170.6043 O.co2   1  UNL1       -0.5492
     23 C         140.2873  142.7748  170.7704 C.2     1  UNL1        0.0508
     24 O         140.4193  142.1600  172.1323 O.co2   1  UNL1       -0.5492
@<TRIPOS>UNITY_ATOM_ATTR
22 1
charge -1
@<TRIPOS>BOND
     1    22    23   ar
     2    23    24   ar
     3    23    21    1
     4     1    21    1
     5     1     2    1
     6     2     3    1
     7     3     4    1
     8     4     5   ar
     9     5     6   ar
    10     6     7   ar
    11     7     8   ar
    12     8     9   ar
    13     7    10    1
    14    10    11    1
    15    11    12    1
    16    12    14    1
    17    14    15   ar
    18    15    16   ar
    19    16    17   ar
    20    17    18   ar
    21    18    19    1
    22    18    20   ar
    23    12    13    1
    24     9     1    1
    25    20    14   ar
    26     9     4   ar
    27    13     6    1
