@<TRIPOS>MOLECULE
*****
 31 34 0 0 0
SMALL
GASTEIGER

@<TRIPOS>ATOM
      1 C         140.3345  141.6309  164.8324 C.ar    1  UNL1        0.1430
      2 C         141.3969  141.7186  163.7772 C.ar    1  UNL1        0.0680
      3 C         141.2658  142.7129  162.6618 C.ar    1  UNL1        0.1641
      4 F         142.3282  142.8006  161.6065 F       1  UNL1       -0.2026
      5 C         140.0722  143.6194  162.6016 C.ar    1  UNL1        0.1799
      6 C         139.0098  143.5316  163.6568 C.ar    1  UNL1        0.1641
      7 F         137.8162  144.4381  163.5966 F       1  UNL1       -0.2026
      8 C         139.1410  142.5374  164.7722 C.ar    1  UNL1        0.0680
      9 S         139.9411  144.6136  161.4860 S.O2    1  UNL1        0.0790
     10 O         139.0874  143.6448  160.7228 O.2     1  UNL1       -0.1498
     11 O         140.7947  145.5825  162.2493 O.2     1  UNL1       -0.1498
     12 N         139.8100  145.6079  160.3706 N.pl3   1  UNL1       -0.1987
     13 H         139.2043  146.3781  160.4664 H       1  UNL1        0.1753
     14 C         140.6018  145.4288  159.1093 C.ar    1  UNL1        0.1503
     15 C         140.1100  146.0255  157.8239 C.ar    1  UNL1        0.0563
     16 C         140.9018  145.8463  156.5626 C.ar    1  UNL1        0.1036
     17 N         142.1854  145.0705  156.5866 N.ar    1  UNL1       -0.2223
     18 C         142.6771  144.4738  157.8719 C.ar    1  UNL1        0.2001
     19 N         141.8853  144.6529  159.1333 N.ar    1  UNL1       -0.2077
     20 O         140.4657  140.6366  165.9479 O.3     1  UNL1       -0.4786
     21 C         139.4228  138.3232  165.1080 C.3     1  UNL1        0.0799
     22 C         138.3232  137.4207  165.5836 C.3     1  UNL1        0.0096
     23 C         137.7247  138.0295  166.8171 C.3     1  UNL1        0.0042
     24 C         138.4545  139.3082  167.1036 C.3     1  UNL1        0.0439
     25 C         139.5039  139.4898  166.0473 C.3     1  UNL1        0.1713
     26 C         138.3871  138.0283  162.0273 C.3     1  UNL1        0.1533
     27 N         139.8131  137.9630  162.4883 N.ar    1  UNL1       -0.2527
     28 N         141.0134  137.7507  161.6140 N.ar    1  UNL1       -0.1679
     29 C         142.2313  137.7550  162.4897 C.ar    1  UNL1        0.1213
     30 C         141.7836  137.9700  163.9052 C.ar    1  UNL1        0.0369
     31 C         140.2891  138.0986  163.9042 C.ar    1  UNL1        0.0603
@<TRIPOS>BOND
     1    26    27    1
     2    27    28   ar
     3    28    29   ar
     4    29    30   ar
     5    30    31   ar
     6    21    31    1
     7    21    22    1
     8    22    23    1
     9    23    24    1
    10    24    25    1
    11    25    20    1
    12    20     1    1
    13     1     2   ar
    14     2     3   ar
    15     3     4    1
    16     3     5   ar
    17     5     9    1
    18     9    10    2
    19     9    11    2
    20     9    12    1
    21    12    14    1
    22    14    15   ar
    23    15    16   ar
    24    16    17   ar
    25    17    18   ar
    26    18    19   ar
    27     5     6   ar
    28     6     7    1
    29     6     8   ar
    30    31    27   ar
    31    25    21    1
    32     8     1   ar
    33    19    14   ar
    34    12    13    1
@<TRIPOS>MOLECULE
*****
 31 34 0 0 0
SMALL
GASTEIGER

@<TRIPOS>ATOM
      1 C         141.8760  141.3839  164.6669 C.ar    1  UNL1        0.1430
      2 C         141.9286  142.8393  165.0261 C.ar    1  UNL1        0.0680
      3 C         141.8293  143.8810  163.9514 C.ar    1  UNL1        0.1641
      4 F         141.8818  145.3364  164.3105 F       1  UNL1       -0.2026
      5 C         141.6774  143.4672  162.5176 C.ar    1  UNL1        0.1799
      6 C         141.6249  142.0118  162.1585 C.ar    1  UNL1        0.1641
      7 F         141.4731  141.5981  160.7247 F       1  UNL1       -0.2026
      8 C         141.7242  140.9702  163.2331 C.ar    1  UNL1        0.0680
      9 S         141.5782  144.5090  161.4429 S.O2    1  UNL1        0.0790
     10 O         140.1332  144.7231  161.7838 O.2     1  UNL1       -0.1498
     11 O         143.0231  144.2949  161.1019 O.2     1  UNL1       -0.1498
     12 N         141.4789  145.5507  160.3682 N.pl3   1  UNL1       -0.1987
     13 H         141.4597  146.5053  160.6083 H       1  UNL1        0.1753
     14 C         141.4090  145.1380  158.9278 C.ar    1  UNL1        0.1503
     15 C         140.5541  143.9743  158.5217 C.ar    1  UNL1        0.0563
     16 C         140.4842  143.5616  157.0813 C.ar    1  UNL1        0.1036
     17 N         141.2692  144.3127  156.0470 N.ar    1  UNL1       -0.2223
     18 C         142.1241  145.4763  156.4531 C.ar    1  UNL1        0.2001
     19 N         142.1940  145.8890  157.8935 N.ar    1  UNL1       -0.2077
     20 O         141.9753  140.3421  165.7417 O.3     1  UNL1       -0.4786
     21 C         139.4913  139.5294  166.3021 C.3     1  UNL1        0.0799
     22 C         138.6441  139.4835  167.5391 C.3     1  UNL1        0.0096
     23 C         139.4513  140.0391  168.6748 C.3     1  UNL1        0.0042
     24 C         140.7975  140.4284  168.1396 C.3     1  UNL1        0.0439
     25 C         140.8222  140.1134  166.6733 C.3     1  UNL1        0.1713
     26 C         137.9629  141.3352  164.0542 C.3     1  UNL1        0.1533
     27 N         138.3774  139.9017  163.9010 N.ar    1  UNL1       -0.2527
     28 N         138.1621  139.0466  162.6876 N.ar    1  UNL1       -0.1679
     29 C         138.7315  137.6881  162.9708 C.ar    1  UNL1        0.1213
     30 C         139.2987  137.7036  164.3594 C.ar    1  UNL1        0.0369
     31 C         139.0799  139.0717  164.9342 C.ar    1  UNL1        0.0603
@<TRIPOS>BOND
     1    26    27    1
     2    27    28   ar
     3    28    29   ar
     4    29    30   ar
     5    30    31   ar
     6    21    31    1
     7    21    22    1
     8    22    23    1
     9    23    24    1
    10    24    25    1
    11    25    20    1
    12    20     1    1
    13     1     2   ar
    14     2     3   ar
    15     3     4    1
    16     3     5   ar
    17     5     9    1
    18     9    10    2
    19     9    11    2
    20     9    12    1
    21    12    14    1
    22    14    15   ar
    23    15    16   ar
    24    16    17   ar
    25    17    18   ar
    26    18    19   ar
    27     5     6   ar
    28     6     7    1
    29     6     8   ar
    30    31    27   ar
    31    25    21    1
    32     8     1   ar
    33    19    14   ar
    34    12    13    1
@<TRIPOS>MOLECULE
*****
 31 34 0 0 0
SMALL
GASTEIGER

@<TRIPOS>ATOM
      1 C         141.9579  141.4411  164.7215 C.ar    1  UNL1        0.1430
      2 C         141.7547  141.0108  163.2991 C.ar    1  UNL1        0.0680
      3 C         141.6323  142.0397  162.2145 C.ar    1  UNL1        0.1641
      4 F         141.4291  141.6095  160.7919 F       1  UNL1       -0.2026
      5 C         141.7131  143.4989  162.5524 C.ar    1  UNL1        0.1799
      6 C         141.9163  143.9293  163.9749 C.ar    1  UNL1        0.1641
      7 F         141.9971  145.3885  164.3128 F       1  UNL1       -0.2026
      8 C         142.0387  142.9004  165.0595 C.ar    1  UNL1        0.0680
      9 S         141.5907  144.5279  161.4677 S.O2    1  UNL1        0.0790
     10 O         140.1660  144.7774  161.8652 O.2     1  UNL1       -0.1498
     11 O         143.0154  144.2783  161.0703 O.2     1  UNL1       -0.1498
     12 N         141.4683  145.5567  160.3831 N.pl3   1  UNL1       -0.1987
     13 H         141.4360  146.5134  160.6135 H       1  UNL1        0.1753
     14 C         141.3952  145.1281  158.9475 C.ar    1  UNL1        0.1503
     15 C         140.5000  143.9925  158.5485 C.ar    1  UNL1        0.0563
     16 C         140.4268  143.5639  157.1129 C.ar    1  UNL1        0.1036
     17 N         141.2490  144.2708  156.0764 N.ar    1  UNL1       -0.2223
     18 C         142.1442  145.4063  156.4754 C.ar    1  UNL1        0.2001
     19 N         142.2173  145.8349  157.9110 N.ar    1  UNL1       -0.2077
     20 O         142.0803  140.4122  165.8062 O.3     1  UNL1       -0.4786
     21 C         139.6130  139.5866  166.4189 C.3     1  UNL1        0.0799
     22 C         138.7856  139.5535  167.6695 C.3     1  UNL1        0.0096
     23 C         139.6052  140.1350  168.7832 C.3     1  UNL1        0.0042
     24 C         140.9392  140.5275  168.2207 C.3     1  UNL1        0.0439
     25 C         140.9440  140.1885  166.7594 C.3     1  UNL1        0.1713
     26 C         138.0634  141.3511  164.1528 C.3     1  UNL1        0.1533
     27 N         138.4723  139.9137  164.0237 N.ar    1  UNL1       -0.2527
     28 N         138.2408  139.0349  162.8303 N.ar    1  UNL1       -0.1679
     29 C         138.8099  137.6808  163.1342 C.ar    1  UNL1        0.1213
     30 C         139.3932  137.7227  164.5156 C.ar    1  UNL1        0.0369
     31 C         139.1846  139.1026  165.0653 C.ar    1  UNL1        0.0603
@<TRIPOS>BOND
     1    26    27    1
     2    27    28   ar
     3    28    29   ar
     4    29    30   ar
     5    30    31   ar
     6    21    31    1
     7    21    22    1
     8    22    23    1
     9    23    24    1
    10    24    25    1
    11    25    20    1
    12    20     1    1
    13     1     2   ar
    14     2     3   ar
    15     3     4    1
    16     3     5   ar
    17     5     9    1
    18     9    10    2
    19     9    11    2
    20     9    12    1
    21    12    14    1
    22    14    15   ar
    23    15    16   ar
    24    16    17   ar
    25    17    18   ar
    26    18    19   ar
    27     5     6   ar
    28     6     7    1
    29     6     8   ar
    30    31    27   ar
    31    25    21    1
    32     8     1   ar
    33    19    14   ar
    34    12    13    1
@<TRIPOS>MOLECULE
*****
 31 34 0 0 0
SMALL
GASTEIGER

@<TRIPOS>ATOM
      1 C         140.1656  141.6863  164.9706 C.ar    1  UNL1        0.1430
      2 C         138.9026  142.4647  164.7494 C.ar    1  UNL1        0.0680
      3 C         138.8101  143.4357  163.6099 C.ar    1  UNL1        0.1641
      4 F         137.5471  144.2142  163.3885 F       1  UNL1       -0.2026
      5 C         139.9804  143.6282  162.6916 C.ar    1  UNL1        0.1799
      6 C         141.2433  142.8498  162.9128 C.ar    1  UNL1        0.1641
      7 F         142.4137  143.0423  161.9946 F       1  UNL1       -0.2026
      8 C         141.3359  141.8788  164.0524 C.ar    1  UNL1        0.0680
      9 S         139.8878  144.5993  161.5520 S.O2    1  UNL1        0.0790
     10 O         140.6994  145.5912  162.3312 O.2     1  UNL1       -0.1498
     11 O         139.0762  143.6073  160.7728 O.2     1  UNL1       -0.1498
     12 N         139.7951  145.5702  160.4125 N.pl3   1  UNL1       -0.1987
     13 H         139.1964  146.3491  160.4768 H       1  UNL1        0.1753
     14 C         140.6148  145.3546  159.1748 C.ar    1  UNL1        0.1503
     15 C         140.1677  145.9395  157.8679 C.ar    1  UNL1        0.0563
     16 C         140.9873  145.7238  156.6302 C.ar    1  UNL1        0.1036
     17 N         142.2540  144.9233  156.6996 N.ar    1  UNL1       -0.2223
     18 C         142.7010  144.3385  158.0065 C.ar    1  UNL1        0.2001
     19 N         141.8814  144.5541  159.2441 N.ar    1  UNL1       -0.2077
     20 O         140.2582  140.7152  166.1102 O.3     1  UNL1       -0.4786
     21 C         139.5111  138.3237  165.1790 C.3     1  UNL1        0.0799
     22 C         138.4571  137.3230  165.5501 C.3     1  UNL1        0.0096
     23 C         137.6929  137.8671  166.7206 C.3     1  UNL1        0.0042
     24 C         138.2746  139.2040  167.0729 C.3     1  UNL1        0.0439
     25 C         139.3983  139.4862  166.1201 C.3     1  UNL1        0.1713
     26 C         142.7594  138.3079  165.4915 C.3     1  UNL1        0.1533
     27 N         141.9966  138.1787  164.2064 N.ar    1  UNL1       -0.2527
     28 N         142.5930  138.0196  162.8393 N.ar    1  UNL1       -0.1679
     29 C         141.4686  137.9285  161.8507 C.ar    1  UNL1        0.1213
     30 C         140.1771  138.0313  162.6069 C.ar    1  UNL1        0.0369
     31 C         140.5035  138.1860  164.0628 C.ar    1  UNL1        0.0603
@<TRIPOS>BOND
     1    26    27    1
     2    27    28   ar
     3    28    29   ar
     4    29    30   ar
     5    30    31   ar
     6    21    31    1
     7    21    22    1
     8    22    23    1
     9    23    24    1
    10    24    25    1
    11    25    20    1
    12    20     1    1
    13     1     2   ar
    14     2     3   ar
    15     3     4    1
    16     3     5   ar
    17     5     9    1
    18     9    10    2
    19     9    11    2
    20     9    12    1
    21    12    14    1
    22    14    15   ar
    23    15    16   ar
    24    16    17   ar
    25    17    18   ar
    26    18    19   ar
    27     5     6   ar
    28     6     7    1
    29     6     8   ar
    30    31    27   ar
    31    25    21    1
    32     8     1   ar
    33    19    14   ar
    34    12    13    1
@<TRIPOS>MOLECULE
*****
 31 34 0 0 0
SMALL
GASTEIGER

@<TRIPOS>ATOM
      1 C         141.6015  141.3694  164.6763 C.ar    1  UNL1        0.1430
      2 C         142.0472  142.7609  165.0155 C.ar    1  UNL1        0.0680
      3 C         142.0158  143.8346  163.9686 C.ar    1  UNL1        0.1641
      4 F         142.4615  145.2262  164.3078 F       1  UNL1       -0.2026
      5 C         141.5387  143.5168  162.5824 C.ar    1  UNL1        0.1799
      6 C         141.0930  142.1253  162.2432 C.ar    1  UNL1        0.1641
      7 F         140.6159  141.8076  160.8571 F       1  UNL1       -0.2026
      8 C         141.1244  141.0516  163.2901 C.ar    1  UNL1        0.0680
      9 S         141.5073  144.5906  161.5355 S.O2    1  UNL1        0.0790
     10 O         140.1758  145.0525  162.0490 O.2     1  UNL1       -0.1498
     11 O         142.8388  144.1288  161.0219 O.2     1  UNL1       -0.1498
     12 N         141.4759  145.6644  160.4886 N.pl3   1  UNL1       -0.1987
     13 H         141.5706  146.6090  160.7493 H       1  UNL1        0.1753
     14 C         141.3004  145.2989  159.0444 C.ar    1  UNL1        0.1503
     15 C         140.2099  144.3527  158.6374 C.ar    1  UNL1        0.0563
     16 C         140.0343  143.9872  157.1933 C.ar    1  UNL1        0.1036
     17 N         140.9493  144.5679  156.1561 N.ar    1  UNL1       -0.2223
     18 C         142.0397  145.5141  156.5631 C.ar    1  UNL1        0.2001
     19 N         142.2153  145.8796  158.0072 N.ar    1  UNL1       -0.2077
     20 O         141.6329  140.2956  165.7232 O.3     1  UNL1       -0.4786
     21 C         139.9447  140.2995  167.7955 C.3     1  UNL1        0.0799
     22 C         138.6181  139.6616  168.0841 C.3     1  UNL1        0.0096
     23 C         138.2208  138.8548  166.8836 C.3     1  UNL1        0.0042
     24 C         139.3018  138.9941  165.8531 C.3     1  UNL1        0.0439
     25 C         140.3672  139.8870  166.4167 C.3     1  UNL1        0.1713
     26 C         142.2467  139.3495  169.9045 C.3     1  UNL1        0.1533
     27 N         141.7717  140.7565  169.6924 N.ar    1  UNL1       -0.2527
     28 N         142.2715  141.9738  170.4124 N.ar    1  UNL1       -0.1679
     29 C         141.5223  143.1628  169.8880 C.ar    1  UNL1        0.1213
     30 C         140.5594  142.6803  168.8439 C.ar    1  UNL1        0.0369
     31 C         140.7136  141.1931  168.7230 C.ar    1  UNL1        0.0603
@<TRIPOS>BOND
     1    26    27    1
     2    27    28   ar
     3    28    29   ar
     4    29    30   ar
     5    30    31   ar
     6    21    31    1
     7    21    22    1
     8    22    23    1
     9    23    24    1
    10    24    25    1
    11    25    20    1
    12    20     1    1
    13     1     2   ar
    14     2     3   ar
    15     3     4    1
    16     3     5   ar
    17     5     9    1
    18     9    10    2
    19     9    11    2
    20     9    12    1
    21    12    14    1
    22    14    15   ar
    23    15    16   ar
    24    16    17   ar
    25    17    18   ar
    26    18    19   ar
    27     5     6   ar
    28     6     7    1
    29     6     8   ar
    30    31    27   ar
    31    25    21    1
    32     8     1   ar
    33    19    14   ar
    34    12    13    1
@<TRIPOS>MOLECULE
*****
 31 34 0 0 0
SMALL
GASTEIGER

@<TRIPOS>ATOM
      1 C         140.1143  142.1155  164.7983 C.ar    1  UNL1        0.1430
      2 C         140.8999  143.3699  165.0415 C.ar    1  UNL1        0.0680
      3 C         141.1823  144.3097  163.9070 C.ar    1  UNL1        0.1641
      4 F         141.9680  145.5642  164.1502 F       1  UNL1       -0.2026
      5 C         140.6792  143.9950  162.5294 C.ar    1  UNL1        0.1799
      6 C         139.8935  142.7406  162.2862 C.ar    1  UNL1        0.1641
      7 F         139.3904  142.4259  160.9086 F       1  UNL1       -0.2026
      8 C         139.6111  141.8008  163.4207 C.ar    1  UNL1        0.0680
      9 S         140.9616  144.9349  161.3949 S.O2    1  UNL1        0.0790
     10 O         142.3271  144.3343  161.2374 O.2     1  UNL1       -0.1498
     11 O         139.5962  145.5354  161.5525 O.2     1  UNL1       -0.1498
     12 N         141.2441  145.8747  160.2605 N.pl3   1  UNL1       -0.1987
     13 H         141.4582  146.8179  160.4444 H       1  UNL1        0.1753
     14 C         141.2003  145.3775  158.8460 C.ar    1  UNL1        0.1503
     15 C         140.1024  144.4533  158.4095 C.ar    1  UNL1        0.0563
     16 C         140.0586  143.9561  156.9950 C.ar    1  UNL1        0.1036
     17 N         141.1128  144.3831  156.0170 N.ar    1  UNL1       -0.2223
     18 C         142.2106  145.3073  156.4535 C.ar    1  UNL1        0.2001
     19 N         142.2544  145.8045  157.8680 N.ar    1  UNL1       -0.2077
     20 O         139.8318  141.1756  165.9328 O.3     1  UNL1       -0.4786
     21 C         141.4097  140.7839  168.0544 C.3     1  UNL1        0.0799
     22 C         142.5719  139.8864  168.3606 C.3     1  UNL1        0.0096
     23 C         142.8454  139.0511  167.1450 C.3     1  UNL1        0.0042
     24 C         141.8522  139.4324  166.0876 C.3     1  UNL1        0.0439
     25 C         140.9649  140.5033  166.6496 C.3     1  UNL1        0.1713
     26 C         138.8548  140.2681  170.0182 C.3     1  UNL1        0.1533
     27 N         139.6252  141.5490  169.8915 N.ar    1  UNL1       -0.2527
     28 N         139.3564  142.8177  170.6454 N.ar    1  UNL1       -0.1679
     29 C         140.3646  143.8388  170.2086 C.ar    1  UNL1        0.1213
     30 C         141.2565  143.2012  169.1849 C.ar    1  UNL1        0.0369
     31 C         140.7995  141.7860  168.9889 C.ar    1  UNL1        0.0603
@<TRIPOS>BOND
     1    26    27    1
     2    27    28   ar
     3    28    29   ar
     4    29    30   ar
     5    30    31   ar
     6    21    31    1
     7    21    22    1
     8    22    23    1
     9    23    24    1
    10    24    25    1
    11    25    20    1
    12    20     1    1
    13     1     2   ar
    14     2     3   ar
    15     3     4    1
    16     3     5   ar
    17     5     9    1
    18     9    10    2
    19     9    11    2
    20     9    12    1
    21    12    14    1
    22    14    15   ar
    23    15    16   ar
    24    16    17   ar
    25    17    18   ar
    26    18    19   ar
    27     5     6   ar
    28     6     7    1
    29     6     8   ar
    30    31    27   ar
    31    25    21    1
    32     8     1   ar
    33    19    14   ar
    34    12    13    1
@<TRIPOS>MOLECULE
*****
 31 34 0 0 0
SMALL
GASTEIGER

@<TRIPOS>ATOM
      1 C         139.6964  141.1988  164.9960 C.ar    1  UNL1        0.1430
      2 C         140.2913  140.8801  163.6565 C.ar    1  UNL1        0.0680
      3 C         140.5583  141.9810  162.6733 C.ar    1  UNL1        0.1641
      4 F         141.1533  141.6623  161.3337 F       1  UNL1       -0.2026
      5 C         140.2304  143.4006  163.0297 C.ar    1  UNL1        0.1799
      6 C         139.6355  143.7194  164.3693 C.ar    1  UNL1        0.1641
      7 F         139.3077  145.1391  164.7257 F       1  UNL1       -0.2026
      8 C         139.3685  142.6185  165.3524 C.ar    1  UNL1        0.0680
      9 S         140.4975  144.5016  162.0465 S.O2    1  UNL1        0.0790
     10 O         141.8119  144.7788  162.7138 O.2     1  UNL1       -0.1498
     11 O         139.1831  144.2244  161.3791 O.2     1  UNL1       -0.1498
     12 N         140.7645  145.6025  161.0633 N.pl3   1  UNL1       -0.1987
     13 H         140.6755  146.5428  161.3410 H       1  UNL1        0.1753
     14 C         141.1670  145.2707  159.6569 C.ar    1  UNL1        0.1503
     15 C         140.3827  145.8210  158.5027 C.ar    1  UNL1        0.0563
     16 C         140.7852  145.4892  157.0963 C.ar    1  UNL1        0.1036
     17 N         141.9720  144.6072  156.8441 N.ar    1  UNL1       -0.2223
     18 C         142.7563  144.0570  157.9983 C.ar    1  UNL1        0.2001
     19 N         142.3538  144.3887  159.4047 N.ar    1  UNL1       -0.2077
     20 O         139.4293  140.0979  165.9792 O.3     1  UNL1       -0.4786
     21 C         141.6575  139.9740  167.4505 C.3     1  UNL1        0.0799
     22 C         141.9592  139.9642  168.9198 C.3     1  UNL1        0.0096
     23 C         140.6575  140.0452  169.6608 C.3     1  UNL1        0.0042
     24 C         139.5514  140.1052  168.6495 C.3     1  UNL1        0.0439
     25 C         140.1695  140.0612  167.2834 C.3     1  UNL1        0.1713
     26 C         143.0490  142.5273  165.9691 C.3     1  UNL1        0.1533
     27 N         143.3064  141.0818  165.6619 N.ar    1  UNL1       -0.2527
     28 N         144.2486  140.5562  164.6197 N.ar    1  UNL1       -0.1679
     29 C         144.1913  139.0577  164.6565 C.ar    1  UNL1        0.1213
     30 C         143.2137  138.6573  165.7215 C.ar    1  UNL1        0.0369
     31 C         142.6668  139.9082  166.3428 C.ar    1  UNL1        0.0603
@<TRIPOS>BOND
     1    26    27    1
     2    27    28   ar
     3    28    29   ar
     4    29    30   ar
     5    30    31   ar
     6    21    31    1
     7    21    22    1
     8    22    23    1
     9    23    24    1
    10    24    25    1
    11    25    20    1
    12    20     1    1
    13     1     2   ar
    14     2     3   ar
    15     3     4    1
    16     3     5   ar
    17     5     9    1
    18     9    10    2
    19     9    11    2
    20     9    12    1
    21    12    14    1
    22    14    15   ar
    23    15    16   ar
    24    16    17   ar
    25    17    18   ar
    26    18    19   ar
    27     5     6   ar
    28     6     7    1
    29     6     8   ar
    30    31    27   ar
    31    25    21    1
    32     8     1   ar
    33    19    14   ar
    34    12    13    1
@<TRIPOS>MOLECULE
*****
 31 34 0 0 0
SMALL
GASTEIGER

@<TRIPOS>ATOM
      1 C         141.5539  141.1605  164.6412 C.ar    1  UNL1        0.1430
      2 C         141.9193  140.8457  163.2209 C.ar    1  UNL1        0.0680
      3 C         141.9227  141.9339  162.1886 C.ar    1  UNL1        0.1641
      4 F         142.2881  141.6191  160.7682 F       1  UNL1       -0.2026
      5 C         141.5606  143.3369  162.5765 C.ar    1  UNL1        0.1799
      6 C         141.1952  143.6517  163.9969 C.ar    1  UNL1        0.1641
      7 F         140.8332  145.0547  164.3848 F       1  UNL1       -0.2026
      8 C         141.1918  142.5635  165.0292 C.ar    1  UNL1        0.0680
      9 S         141.5640  144.4251  161.5441 S.O2    1  UNL1        0.0790
     10 O         143.0255  144.6551  161.7913 O.2     1  UNL1       -0.1498
     11 O         140.1026  144.1951  161.2969 O.2     1  UNL1       -0.1498
     12 N         141.5674  145.5133  160.5117 N.pl3   1  UNL1       -0.1987
     13 H         141.6020  146.4567  160.7910 H       1  UNL1        0.1753
     14 C         141.5181  145.1641  159.0538 C.ar    1  UNL1        0.1503
     15 C         140.3945  145.6708  158.1988 C.ar    1  UNL1        0.0563
     16 C         140.3452  145.3216  156.7409 C.ar    1  UNL1        0.1036
     17 N         141.4194  144.4657  156.1379 N.ar    1  UNL1       -0.2223
     18 C         142.5429  143.9590  156.9929 C.ar    1  UNL1        0.2001
     19 N         142.5922  144.3082  158.4508 N.ar    1  UNL1       -0.2077
     20 O         141.5505  140.0723  165.6736 O.3     1  UNL1       -0.4786
     21 C         139.8737  140.1779  167.7526 C.3     1  UNL1        0.0799
     22 C         138.5325  139.5831  168.0648 C.3     1  UNL1        0.0096
     23 C         138.1081  138.7539  166.8891 C.3     1  UNL1        0.0042
     24 C         139.1870  138.8362  165.8503 C.3     1  UNL1        0.0439
     25 C         140.2782  139.7163  166.3839 C.3     1  UNL1        0.1713
     26 C         142.2355  139.2388  169.7995 C.3     1  UNL1        0.1533
     27 N         141.7560  140.6449  169.5921 N.ar    1  UNL1       -0.2527
     28 N         142.2780  141.8663  170.2892 N.ar    1  UNL1       -0.1679
     29 C         141.5150  143.0527  169.7792 C.ar    1  UNL1        0.1213
     30 C         140.5215  142.5646  168.7669 C.ar    1  UNL1        0.0369
     31 C         140.6704  141.0765  168.6513 C.ar    1  UNL1        0.0603
@<TRIPOS>BOND
     1    26    27    1
     2    27    28   ar
     3    28    29   ar
     4    29    30   ar
     5    30    31   ar
     6    21    31    1
     7    21    22    1
     8    22    23    1
     9    23    24    1
    10    24    25    1
    11    25    20    1
    12    20     1    1
    13     1     2   ar
    14     2     3   ar
    15     3     4    1
    16     3     5   ar
    17     5     9    1
    18     9    10    2
    19     9    11    2
    20     9    12    1
    21    12    14    1
    22    14    15   ar
    23    15    16   ar
    24    16    17   ar
    25    17    18   ar
    26    18    19   ar
    27     5     6   ar
    28     6     7    1
    29     6     8   ar
    30    31    27   ar
    31    25    21    1
    32     8     1   ar
    33    19    14   ar
    34    12    13    1
@<TRIPOS>MOLECULE
*****
 31 34 0 0 0
SMALL
GASTEIGER

@<TRIPOS>ATOM
      1 C         139.9138  142.1075  165.0099 C.ar    1  UNL1        0.1430
      2 C         139.3336  141.7938  163.6627 C.ar    1  UNL1        0.0680
      3 C         139.5603  142.7292  162.5122 C.ar    1  UNL1        0.1641
      4 F         138.9801  142.4155  161.1650 F       1  UNL1       -0.2026
      5 C         140.3672  143.9783  162.7089 C.ar    1  UNL1        0.1799
      6 C         140.9474  144.2920  164.0561 C.ar    1  UNL1        0.1641
      7 F         141.7543  145.5411  164.2528 F       1  UNL1       -0.2026
      8 C         140.7207  143.3566  165.2065 C.ar    1  UNL1        0.0680
      9 S         140.5939  144.9137  161.5584 S.O2    1  UNL1        0.0790
     10 O         139.2194  145.4829  161.7503 O.2     1  UNL1       -0.1498
     11 O         141.9683  144.3445  161.3664 O.2     1  UNL1       -0.1498
     12 N         140.8206  145.8490  160.4078 N.pl3   1  UNL1       -0.1987
     13 H         140.8827  146.8186  160.5666 H       1  UNL1        0.1753
     14 C         140.9525  145.3070  159.0154 C.ar    1  UNL1        0.1503
     15 C         139.9886  144.2701  158.5197 C.ar    1  UNL1        0.0563
     16 C         140.1206  143.7281  157.1273 C.ar    1  UNL1        0.1036
     17 N         141.2165  144.2231  156.2306 N.ar    1  UNL1       -0.2223
     18 C         142.1803  145.2600  156.7263 C.ar    1  UNL1        0.2001
     19 N         142.0484  145.8020  158.1187 N.ar    1  UNL1       -0.2077
     20 O         139.6872  141.1721  166.1604 O.3     1  UNL1       -0.4786
     21 C         141.7462  139.4758  166.3270 C.3     1  UNL1        0.0799
     22 C         142.7827  139.1646  167.3657 C.3     1  UNL1        0.0096
     23 C         142.5346  140.0527  168.5488 C.3     1  UNL1        0.0042
     24 C         141.3448  140.9128  168.2413 C.3     1  UNL1        0.0439
     25 C         140.8575  140.5563  166.8682 C.3     1  UNL1        0.1713
     26 C         142.8942  140.6500  163.5069 C.3     1  UNL1        0.1533
     27 N         142.1482  139.3612  163.6869 N.ar    1  UNL1       -0.2527
     28 N         141.7989  138.3857  162.6022 N.ar    1  UNL1       -0.1679
     29 C         141.0553  137.2432  163.2281 C.ar    1  UNL1        0.1213
     30 C         140.9451  137.5125  164.6996 C.ar    1  UNL1        0.0369
     31 C         141.6205  138.8215  164.9831 C.ar    1  UNL1        0.0603
@<TRIPOS>BOND
     1    26    27    1
     2    27    28   ar
     3    28    29   ar
     4    29    30   ar
     5    30    31   ar
     6    21    31    1
     7    21    22    1
     8    22    23    1
     9    23    24    1
    10    24    25    1
    11    25    20    1
    12    20     1    1
    13     1     2   ar
    14     2     3   ar
    15     3     4    1
    16     3     5   ar
    17     5     9    1
    18     9    10    2
    19     9    11    2
    20     9    12    1
    21    12    14    1
    22    14    15   ar
    23    15    16   ar
    24    16    17   ar
    25    17    18   ar
    26    18    19   ar
    27     5     6   ar
    28     6     7    1
    29     6     8   ar
    30    31    27   ar
    31    25    21    1
    32     8     1   ar
    33    19    14   ar
    34    12    13    1
