@<TRIPOS>MOLECULE
*****
 31 32 0 0 0
SMALL
GASTEIGER

@<TRIPOS>ATOM
      1 N         140.7962  138.0192  162.5173 N.3     1  UNL1       -0.2691
      2 C         139.6907  138.1006  161.5068 C.3     1  UNL1        0.0936
      3 C         138.2603  138.0251  161.9524 C.3     1  UNL1        0.1057
      4 N         137.3036  139.1227  161.5920 N.pl3   1  UNL1       -0.3180
      5 H         136.4312  138.9036  161.1917 H       1  UNL1        0.1482
      6 C         138.3586  140.8113  159.3480 C.3     1  UNL1        0.1363
      7 N         138.2035  141.3984  160.7195 N.ar    1  UNL1       -0.2675
      8 C         137.6760  140.5542  161.8415 C.ar    1  UNL1        0.1174
      9 C         137.5208  141.1414  163.2131 C.ar    1  UNL1        0.0933
     10 C         137.8932  142.5728  163.4626 C.ar    1  UNL1        0.2671
     11 O         137.7380  143.1600  164.8342 O.2     1  UNL1       -0.2668
     12 N         138.4207  143.4170  162.3406 N.ar    1  UNL1       -0.2467
     13 C         138.7930  144.8486  162.5901 C.3     1  UNL1        0.1382
     14 C         138.5758  142.8299  160.9691 C.ar    1  UNL1        0.3348
     15 O         139.1034  143.6742  159.8470 O.2     1  UNL1       -0.2462
     16 C         142.2266  138.0203  162.0657 C.3     1  UNL1        0.1043
     17 C         143.3017  138.5268  162.9810 C.3     1  UNL1        0.1544
     18 O         144.6487  138.8875  162.4284 O.3     1  UNL1       -0.3805
     19 H         145.0847  138.0888  162.0922 H       1  UNL1        0.2105
     20 C         140.4714  137.9367  163.9793 C.3     1  UNL1        0.0726
     21 C         140.2376  139.1913  164.7677 C.3     1  UNL1        0.0220
     22 C         139.2740  139.1860  165.9173 C.3     1  UNL1        0.0278
     23 C         139.5004  140.0939  167.0897 C.ar    1  UNL1       -0.0217
     24 C         140.2649  141.3721  166.9118 C.ar    1  UNL1        0.0020
     25 C         140.4913  142.2800  168.0843 C.ar    1  UNL1        0.0749
     26 C         139.9532  141.9095  169.4346 C.ar    1  UNL1        0.2900
     27 C         139.1887  140.6313  169.6124 C.ar    1  UNL1        0.0749
     28 C         138.9623  139.7234  168.4400 C.ar    1  UNL1        0.0020
     29 N         140.1795  142.8174  170.6070 N.pl3   1  UNL1        0.0809
     30 O         140.5622  142.2418  171.9383 O.2     1  UNL1        0.0415
     31 O         140.0232  144.3007  170.4482 O.co2   1  UNL1       -0.5760
@<TRIPOS>UNITY_ATOM_ATTR
29 1
charge 1
31 1
charge -1
@<TRIPOS>BOND
     1     6     7    1
     2     7     8   ar
     3     8     4    1
     4     4     3    1
     5     3     2    1
     6     2     1    1
     7     1    16    1
     8    16    17    1
     9    17    18    1
    10     1    20    1
    11    20    21    1
    12    21    22    1
    13    22    23    1
    14    23    24   ar
    15    24    25   ar
    16    25    26   ar
    17    26    29    1
    18    29    30    2
    19    29    31    1
    20    26    27   ar
    21    27    28   ar
    22     8     9   ar
    23     9    10   ar
    24    10    11    2
    25    10    12   ar
    26    12    13    1
    27    12    14   ar
    28    14    15    2
    29    14     7   ar
    30    28    23   ar
    31     4     5    1
    32    18    19    1
@<TRIPOS>MOLECULE
*****
 31 32 0 0 0
SMALL
GASTEIGER

@<TRIPOS>ATOM
      1 N         138.5399  144.2774  162.7857 N.3     1  UNL1       -0.2691
      2 C         139.4874  145.2999  162.2321 C.3     1  UNL1        0.0936
      3 C         140.3313  144.9708  161.0364 C.3     1  UNL1        0.1057
      4 N         141.7985  145.2824  161.0452 N.pl3   1  UNL1       -0.3180
      5 H         142.1355  146.0783  160.5740 H       1  UNL1        0.1482
      6 C         142.9682  142.8979  159.6501 C.3     1  UNL1        0.1363
      7 N         143.3371  143.1890  161.0746 N.ar    1  UNL1       -0.2675
      8 C         142.7523  144.3812  161.7721 C.ar    1  UNL1        0.1174
      9 C         143.1212  144.6723  163.1966 C.ar    1  UNL1        0.0933
     10 C         144.0749  143.7713  163.9235 C.ar    1  UNL1        0.2671
     11 O         144.4438  144.0624  165.3480 O.2     1  UNL1       -0.2668
     12 N         144.6597  142.5791  163.2260 N.ar    1  UNL1       -0.2467
     13 C         145.6135  141.6779  163.9529 C.3     1  UNL1        0.1382
     14 C         144.2908  142.2880  161.8015 C.ar    1  UNL1        0.3348
     15 O         144.8757  141.0957  161.1039 O.2     1  UNL1       -0.2462
     16 C         138.1003  143.1234  161.9342 C.3     1  UNL1        0.1043
     17 C         137.9301  141.7635  162.5437 C.3     1  UNL1        0.1544
     18 O         136.5987  141.3516  163.0985 O.3     1  UNL1       -0.3805
     19 H         136.3846  141.9023  163.8678 H       1  UNL1        0.2105
     20 C         138.0319  144.4088  164.1909 C.3     1  UNL1        0.0726
     21 C         138.9955  144.4019  165.3405 C.3     1  UNL1        0.0220
     22 C         140.1141  143.4032  165.3755 C.3     1  UNL1        0.0278
     23 C         140.2622  142.4839  166.5515 C.ar    1  UNL1       -0.0217
     24 C         140.3807  143.0498  167.9356 C.ar    1  UNL1        0.0020
     25 C         140.5289  142.1305  169.1116 C.ar    1  UNL1        0.0749
     26 C         140.5585  140.6453  168.9035 C.ar    1  UNL1        0.2900
     27 C         140.4400  140.0794  167.5194 C.ar    1  UNL1        0.0749
     28 C         140.2918  140.9987  166.3434 C.ar    1  UNL1        0.0020
     29 N         140.7067  139.7260  170.0795 N.pl3   1  UNL1        0.0809
     30 O         139.5972  139.6055  171.0818 O.2     1  UNL1        0.0415
     31 O         141.9643  138.9271  170.2532 O.co2   1  UNL1       -0.5760
@<TRIPOS>UNITY_ATOM_ATTR
29 1
charge 1
31 1
charge -1
@<TRIPOS>BOND
     1     6     7    1
     2     7     8   ar
     3     8     4    1
     4     4     3    1
     5     3     2    1
     6     2     1    1
     7     1    16    1
     8    16    17    1
     9    17    18    1
    10     1    20    1
    11    20    21    1
    12    21    22    1
    13    22    23    1
    14    23    24   ar
    15    24    25   ar
    16    25    26   ar
    17    26    29    1
    18    29    30    2
    19    29    31    1
    20    26    27   ar
    21    27    28   ar
    22     8     9   ar
    23     9    10   ar
    24    10    11    2
    25    10    12   ar
    26    12    13    1
    27    12    14   ar
    28    14    15    2
    29    14     7   ar
    30    28    23   ar
    31     4     5    1
    32    18    19    1
@<TRIPOS>MOLECULE
*****
 31 32 0 0 0
SMALL
GASTEIGER

@<TRIPOS>ATOM
      1 N         139.3240  144.0806  162.9711 N.3     1  UNL1       -0.2691
      2 C         137.8807  143.6849  162.8703 C.3     1  UNL1        0.0936
      3 C         137.2860  142.7527  163.8840 C.3     1  UNL1        0.1057
      4 N         136.9402  141.3454  163.4969 N.pl3   1  UNL1       -0.3180
      5 H         136.0131  141.1136  163.2606 H       1  UNL1        0.1482
      6 C         137.4886  139.8306  160.9662 C.3     1  UNL1        0.1363
      7 N         138.2813  139.5339  162.2046 N.ar    1  UNL1       -0.2675
      8 C         138.0071  140.2913  163.4699 C.ar    1  UNL1        0.1174
      9 C         138.7998  139.9946  164.7083 C.ar    1  UNL1        0.0933
     10 C         139.8666  138.9405  164.6814 C.ar    1  UNL1        0.2671
     11 O         140.6593  138.6438  165.9198 O.2     1  UNL1       -0.2668
     12 N         140.1408  138.1831  163.4160 N.ar    1  UNL1       -0.2467
     13 C         141.2076  137.1290  163.3890 C.3     1  UNL1        0.1382
     14 C         139.3481  138.4798  162.1776 C.ar    1  UNL1        0.3348
     15 O         139.6223  137.7224  160.9122 O.2     1  UNL1       -0.2462
     16 C         140.0010  144.7497  161.8118 C.3     1  UNL1        0.1043
     17 C         139.9807  146.2447  161.6924 C.3     1  UNL1        0.1544
     18 O         138.8957  146.9198  160.9068 O.3     1  UNL1       -0.3805
     19 H         138.9799  146.6833  159.9699 H       1  UNL1        0.2105
     20 C         140.0904  143.8072  164.2312 C.3     1  UNL1        0.0726
     21 C         141.0885  142.6882  164.2742 C.3     1  UNL1        0.0220
     22 C         142.1082  142.6345  165.3729 C.3     1  UNL1        0.0278
     23 C         141.6988  142.2251  166.7567 C.ar    1  UNL1       -0.0217
     24 C         142.4772  141.1721  167.4884 C.ar    1  UNL1        0.0020
     25 C         142.0678  140.7627  168.8722 C.ar    1  UNL1        0.0749
     26 C         140.8801  141.4062  169.5242 C.ar    1  UNL1        0.2900
     27 C         140.1017  142.4591  168.7925 C.ar    1  UNL1        0.0749
     28 C         140.5110  142.8686  167.4088 C.ar    1  UNL1        0.0020
     29 N         140.4707  140.9967  170.9080 N.pl3   1  UNL1        0.0809
     30 O         140.7556  141.8986  172.0721 O.2     1  UNL1        0.0415
     31 O         139.7763  139.6853  171.1275 O.co2   1  UNL1       -0.5760
@<TRIPOS>UNITY_ATOM_ATTR
29 1
charge 1
31 1
charge -1
@<TRIPOS>BOND
     1     6     7    1
     2     7     8   ar
     3     8     4    1
     4     4     3    1
     5     3     2    1
     6     2     1    1
     7     1    16    1
     8    16    17    1
     9    17    18    1
    10     1    20    1
    11    20    21    1
    12    21    22    1
    13    22    23    1
    14    23    24   ar
    15    24    25   ar
    16    25    26   ar
    17    26    29    1
    18    29    30    2
    19    29    31    1
    20    26    27   ar
    21    27    28   ar
    22     8     9   ar
    23     9    10   ar
    24    10    11    2
    25    10    12   ar
    26    12    13    1
    27    12    14   ar
    28    14    15    2
    29    14     7   ar
    30    28    23   ar
    31     4     5    1
    32    18    19    1
@<TRIPOS>MOLECULE
*****
 31 32 0 0 0
SMALL
GASTEIGER

@<TRIPOS>ATOM
      1 N         143.9190  141.4715  162.3825 N.3     1  UNL1       -0.2691
      2 C         144.3672  142.7299  161.7003 C.3     1  UNL1        0.0936
      3 C         144.4209  144.0193  162.4650 C.3     1  UNL1        0.1057
      4 N         143.2533  144.9604  162.4314 N.pl3   1  UNL1       -0.3180
      5 H         143.3828  145.8957  162.1525 H       1  UNL1        0.1482
      6 C         141.1810  144.4511  160.3227 C.3     1  UNL1        0.1363
      7 N         140.8523  144.2219  161.7682 N.ar    1  UNL1       -0.2675
      8 C         141.8884  144.4765  162.8225 C.ar    1  UNL1        0.1174
      9 C         141.5597  144.2472  164.2680 C.ar    1  UNL1        0.0933
     10 C         140.1948  143.7633  164.6591 C.ar    1  UNL1        0.2671
     11 O         139.8661  143.5341  166.1046 O.2     1  UNL1       -0.2668
     12 N         139.1587  143.5087  163.6048 N.ar    1  UNL1       -0.2467
     13 C         137.7938  143.0248  163.9960 C.3     1  UNL1        0.1382
     14 C         139.4875  143.7380  162.1593 C.ar    1  UNL1        0.3348
     15 O         138.4513  143.4834  161.1050 O.2     1  UNL1       -0.2462
     16 C         142.8172  140.6466  161.7859 C.3     1  UNL1        0.1043
     17 C         143.1025  139.2597  161.2910 C.3     1  UNL1        0.1544
     18 O         144.5204  138.7996  161.1244 O.3     1  UNL1       -0.3805
     19 H         144.9467  139.3139  160.4210 H       1  UNL1        0.2105
     20 C         144.5724  141.0379  163.6611 C.3     1  UNL1        0.0726
     21 C         143.9786  141.4365  164.9796 C.3     1  UNL1        0.0220
     22 C         142.8298  140.6592  165.5505 C.3     1  UNL1        0.0278
     23 C         142.2117  141.0803  166.8507 C.ar    1  UNL1       -0.0217
     24 C         142.8660  142.1432  167.6827 C.ar    1  UNL1        0.0020
     25 C         142.2478  142.5643  168.9830 C.ar    1  UNL1        0.0749
     26 C         140.9756  141.9225  169.4513 C.ar    1  UNL1        0.2900
     27 C         140.3213  140.8595  168.6193 C.ar    1  UNL1        0.0749
     28 C         140.9394  140.4384  167.3191 C.ar    1  UNL1        0.0020
     29 N         140.3575  142.3435  170.7515 N.pl3   1  UNL1        0.0809
     30 O         139.5775  143.6223  170.8319 O.2     1  UNL1        0.0415
     31 O         140.5193  141.4858  171.9714 O.co2   1  UNL1       -0.5760
@<TRIPOS>UNITY_ATOM_ATTR
29 1
charge 1
31 1
charge -1
@<TRIPOS>BOND
     1     6     7    1
     2     7     8   ar
     3     8     4    1
     4     4     3    1
     5     3     2    1
     6     2     1    1
     7     1    16    1
     8    16    17    1
     9    17    18    1
    10     1    20    1
    11    20    21    1
    12    21    22    1
    13    22    23    1
    14    23    24   ar
    15    24    25   ar
    16    25    26   ar
    17    26    29    1
    18    29    30    2
    19    29    31    1
    20    26    27   ar
    21    27    28   ar
    22     8     9   ar
    23     9    10   ar
    24    10    11    2
    25    10    12   ar
    26    12    13    1
    27    12    14   ar
    28    14    15    2
    29    14     7   ar
    30    28    23   ar
    31     4     5    1
    32    18    19    1
@<TRIPOS>MOLECULE
*****
 31 32 0 0 0
SMALL
GASTEIGER

@<TRIPOS>ATOM
      1 N         140.9693  139.4515  164.1998 N.3     1  UNL1       -0.2691
      2 C         139.8731  139.7901  165.1661 C.3     1  UNL1        0.0936
      3 C         138.4668  139.3467  164.8905 C.3     1  UNL1        0.1057
      4 N         137.5522  140.2150  164.0784 N.pl3   1  UNL1       -0.3180
      5 H         136.6573  139.8893  163.8289 H       1  UNL1        0.1482
      6 C         138.0960  140.7675  161.1803 C.3     1  UNL1        0.1363
      7 N         138.2731  141.8557  162.1973 N.ar    1  UNL1       -0.2675
      8 C         138.0012  141.5795  163.6464 C.ar    1  UNL1        0.1174
      9 C         138.1783  142.6677  164.6634 C.ar    1  UNL1        0.0933
     10 C         138.6272  144.0322  164.2315 C.ar    1  UNL1        0.2671
     11 O         138.8043  145.1204  165.2485 O.2     1  UNL1       -0.2668
     12 N         138.8991  144.3084  162.7824 N.ar    1  UNL1       -0.2467
     13 C         139.3481  145.6730  162.3504 C.3     1  UNL1        0.1382
     14 C         138.7220  143.2202  161.7654 C.ar    1  UNL1        0.3348
     15 O         138.9939  143.4965  160.3163 O.2     1  UNL1       -0.2462
     16 C         141.0894  138.0569  163.6605 C.3     1  UNL1        0.1043
     17 C         140.7115  137.7679  162.2380 C.3     1  UNL1        0.1544
     18 O         139.2841  137.4689  161.8870 O.3     1  UNL1       -0.3805
     19 H         139.0184  136.6318  162.2988 H       1  UNL1        0.2105
     20 C         141.9453  140.5074  163.7729 C.3     1  UNL1        0.0726
     21 C         143.2097  140.7190  164.5518 C.3     1  UNL1        0.0220
     22 C         143.2328  141.6898  165.6950 C.3     1  UNL1        0.0278
     23 C         142.4531  141.3978  166.9427 C.ar    1  UNL1       -0.0217
     24 C         141.4233  142.3738  167.4293 C.ar    1  UNL1        0.0020
     25 C         140.6436  142.0817  168.6771 C.ar    1  UNL1        0.0749
     26 C         140.8938  140.8137  169.4382 C.ar    1  UNL1        0.2900
     27 C         141.9236  139.8376  168.9517 C.ar    1  UNL1        0.0749
     28 C         142.7033  140.1296  167.7040 C.ar    1  UNL1        0.0020
     29 N         140.1141  140.5216  170.6860 N.pl3   1  UNL1        0.0809
     30 O         140.6017  141.0283  172.0109 O.2     1  UNL1        0.0415
     31 O         138.8469  139.7228  170.6088 O.co2   1  UNL1       -0.5760
@<TRIPOS>UNITY_ATOM_ATTR
29 1
charge 1
31 1
charge -1
@<TRIPOS>BOND
     1     6     7    1
     2     7     8   ar
     3     8     4    1
     4     4     3    1
     5     3     2    1
     6     2     1    1
     7     1    16    1
     8    16    17    1
     9    17    18    1
    10     1    20    1
    11    20    21    1
    12    21    22    1
    13    22    23    1
    14    23    24   ar
    15    24    25   ar
    16    25    26   ar
    17    26    29    1
    18    29    30    2
    19    29    31    1
    20    26    27   ar
    21    27    28   ar
    22     8     9   ar
    23     9    10   ar
    24    10    11    2
    25    10    12   ar
    26    12    13    1
    27    12    14   ar
    28    14    15    2
    29    14     7   ar
    30    28    23   ar
    31     4     5    1
    32    18    19    1
@<TRIPOS>MOLECULE
*****
 31 32 0 0 0
SMALL
GASTEIGER

@<TRIPOS>ATOM
      1 N         144.5623  140.5677  162.4296 N.3     1  UNL1       -0.2691
      2 C         144.0196  139.2281  162.0286 C.3     1  UNL1        0.0936
      3 C         142.5574  138.9331  162.1873 C.3     1  UNL1        0.1057
      4 N         142.0912  138.0178  163.2803 N.pl3   1  UNL1       -0.3180
      5 H         142.1706  137.0424  163.1729 H       1  UNL1        0.1482
      6 C         139.1257  137.9301  163.7253 C.3     1  UNL1        0.1363
      7 N         140.0214  138.5447  164.7597 N.ar    1  UNL1       -0.2675
      8 C         141.5042  138.5886  164.5372 C.ar    1  UNL1        0.1174
      9 C         142.3999  139.2032  165.5715 C.ar    1  UNL1        0.0933
     10 C         141.8129  139.7740  166.8283 C.ar    1  UNL1        0.2671
     11 O         142.7087  140.3887  167.8627 O.2     1  UNL1       -0.2668
     12 N         140.3302  139.7302  167.0508 N.ar    1  UNL1       -0.2467
     13 C         139.7431  140.3010  168.3077 C.3     1  UNL1        0.1382
     14 C         139.4345  139.1155  166.0165 C.ar    1  UNL1        0.3348
     15 O         137.9516  139.0717  166.2390 O.2     1  UNL1       -0.2462
     16 C         144.5325  141.7103  161.4583 C.3     1  UNL1        0.1043
     17 C         143.2242  142.3379  161.0784 C.3     1  UNL1        0.1544
     18 O         143.1934  143.7325  160.5270 O.3     1  UNL1       -0.3805
     19 H         143.4805  144.3572  161.2113 H       1  UNL1        0.2105
     20 C         145.1347  140.7647  163.8020 C.3     1  UNL1        0.0726
     21 C         145.1759  142.1364  164.4077 C.3     1  UNL1        0.0220
     22 C         144.0152  142.6340  165.2171 C.3     1  UNL1        0.0278
     23 C         142.8781  143.3412  164.5413 C.ar    1  UNL1       -0.0217
     24 C         141.5531  142.6549  164.3879 C.ar    1  UNL1        0.0020
     25 C         140.4159  143.3622  163.7121 C.ar    1  UNL1        0.0749
     26 C         140.6037  144.7557  163.1898 C.ar    1  UNL1        0.2900
     27 C         141.9286  145.4420  163.3433 C.ar    1  UNL1        0.0749
     28 C         143.0658  144.7348  164.0190 C.ar    1  UNL1        0.0020
     29 N         139.4665  145.4629  162.5141 N.pl3   1  UNL1        0.0809
     30 O         139.7143  146.7421  161.7710 O.2     1  UNL1        0.0415
     31 O         138.0814  144.8909  162.5814 O.co2   1  UNL1       -0.5760
@<TRIPOS>UNITY_ATOM_ATTR
29 1
charge 1
31 1
charge -1
@<TRIPOS>BOND
     1     6     7    1
     2     7     8   ar
     3     8     4    1
     4     4     3    1
     5     3     2    1
     6     2     1    1
     7     1    16    1
     8    16    17    1
     9    17    18    1
    10     1    20    1
    11    20    21    1
    12    21    22    1
    13    22    23    1
    14    23    24   ar
    15    24    25   ar
    16    25    26   ar
    17    26    29    1
    18    29    30    2
    19    29    31    1
    20    26    27   ar
    21    27    28   ar
    22     8     9   ar
    23     9    10   ar
    24    10    11    2
    25    10    12   ar
    26    12    13    1
    27    12    14   ar
    28    14    15    2
    29    14     7   ar
    30    28    23   ar
    31     4     5    1
    32    18    19    1
@<TRIPOS>MOLECULE
*****
 31 32 0 0 0
SMALL
GASTEIGER

@<TRIPOS>ATOM
      1 N         137.9199  140.7144  163.3873 N.3     1  UNL1       -0.2691
      2 C         137.2604  142.0616  163.3804 C.3     1  UNL1        0.0936
      3 C         137.9894  143.2563  163.9201 C.3     1  UNL1        0.1057
      4 N         138.7401  144.1608  162.9883 N.pl3   1  UNL1       -0.3180
      5 H         138.2623  144.8676  162.4970 H       1  UNL1        0.1482
      6 C         139.9239  144.1942  160.2319 C.3     1  UNL1        0.1363
      7 N         140.8108  144.0052  161.4268 N.ar    1  UNL1       -0.2675
      8 C         140.2189  143.9885  162.8050 C.ar    1  UNL1        0.1174
      9 C         141.1058  143.7994  163.9998 C.ar    1  UNL1        0.0933
     10 C         142.5845  143.6270  163.8166 C.ar    1  UNL1        0.2671
     11 O         143.4713  143.4379  165.0115 O.2     1  UNL1       -0.2668
     12 N         143.1764  143.6437  162.4384 N.ar    1  UNL1       -0.2467
     13 C         144.6551  143.4714  162.2551 C.3     1  UNL1        0.1382
     14 C         142.2895  143.8328  161.2435 C.ar    1  UNL1        0.3348
     15 O         142.8815  143.8495  159.8653 O.2     1  UNL1       -0.2462
     16 C         138.4300  140.1226  162.1068 C.3     1  UNL1        0.1043
     17 C         137.8178  138.8646  161.5658 C.3     1  UNL1        0.1544
     18 O         138.4254  137.5332  161.8945 O.3     1  UNL1       -0.3805
     19 H         139.3058  137.4714  161.4920 H       1  UNL1        0.2105
     20 C         138.0693  139.9591  164.6745 C.3     1  UNL1        0.0726
     21 C         139.4010  139.3838  165.0564 C.3     1  UNL1        0.0220
     22 C         140.4757  140.2774  165.6010 C.3     1  UNL1        0.0278
     23 C         140.3260  140.8855  166.9640 C.ar    1  UNL1       -0.0217
     24 C         140.7740  142.2958  167.2093 C.ar    1  UNL1        0.0020
     25 C         140.6243  142.9039  168.5724 C.ar    1  UNL1        0.0749
     26 C         140.0268  142.1016  169.6901 C.ar    1  UNL1        0.2900
     27 C         139.5789  140.6912  169.4447 C.ar    1  UNL1        0.0749
     28 C         139.7285  140.0832  168.0817 C.ar    1  UNL1        0.0020
     29 N         139.8772  142.7097  171.0532 N.pl3   1  UNL1        0.0809
     30 O         139.0381  143.9392  171.2379 O.2     1  UNL1        0.0415
     31 O         140.5667  142.0882  172.2314 O.co2   1  UNL1       -0.5760
@<TRIPOS>UNITY_ATOM_ATTR
29 1
charge 1
31 1
charge -1
@<TRIPOS>BOND
     1     6     7    1
     2     7     8   ar
     3     8     4    1
     4     4     3    1
     5     3     2    1
     6     2     1    1
     7     1    16    1
     8    16    17    1
     9    17    18    1
    10     1    20    1
    11    20    21    1
    12    21    22    1
    13    22    23    1
    14    23    24   ar
    15    24    25   ar
    16    25    26   ar
    17    26    29    1
    18    29    30    2
    19    29    31    1
    20    26    27   ar
    21    27    28   ar
    22     8     9   ar
    23     9    10   ar
    24    10    11    2
    25    10    12   ar
    26    12    13    1
    27    12    14   ar
    28    14    15    2
    29    14     7   ar
    30    28    23   ar
    31     4     5    1
    32    18    19    1
@<TRIPOS>MOLECULE
*****
 31 32 0 0 0
SMALL
GASTEIGER

@<TRIPOS>ATOM
      1 N         141.1215  139.9166  168.2818 N.3     1  UNL1       -0.2691
      2 C         142.2111  139.4862  167.3451 C.3     1  UNL1        0.0936
      3 C         142.6727  140.4095  166.2567 C.3     1  UNL1        0.1057
      4 N         142.7173  141.8894  166.4974 N.pl3   1  UNL1       -0.3180
      5 H         143.1411  142.2429  167.3127 H       1  UNL1        0.1482
      6 C         144.3554  142.8587  164.1786 C.3     1  UNL1        0.1363
      7 N         142.9354  143.3153  164.3366 N.ar    1  UNL1       -0.2675
      8 C         142.1163  142.8307  165.4959 C.ar    1  UNL1        0.1174
      9 C         140.6963  143.2872  165.6539 C.ar    1  UNL1        0.0933
     10 C         140.0952  144.2284  164.6525 C.ar    1  UNL1        0.2671
     11 O         138.6752  144.6850  164.8105 O.2     1  UNL1       -0.2668
     12 N         140.9143  144.7130  163.4931 N.ar    1  UNL1       -0.2467
     13 C         140.3133  145.6543  162.4916 C.3     1  UNL1        0.1382
     14 C         142.3344  144.2565  163.3351 C.ar    1  UNL1        0.3348
     15 O         143.1534  144.7412  162.1757 O.2     1  UNL1       -0.2462
     16 C         141.4315  140.1686  169.7276 C.3     1  UNL1        0.1043
     17 C         140.3190  140.4346  170.6979 C.3     1  UNL1        0.1544
     18 O         139.6125  139.2896  171.3612 O.3     1  UNL1       -0.3805
     19 H         139.1276  138.7789  170.6942 H       1  UNL1        0.2105
     20 C         139.7219  140.0950  167.7726 C.3     1  UNL1        0.0726
     21 C         139.2023  139.2078  166.6804 C.3     1  UNL1        0.0220
     22 C         138.1203  139.6999  165.7654 C.3     1  UNL1        0.0278
     23 C         138.4788  140.4191  164.4989 C.ar    1  UNL1       -0.0217
     24 C         139.8068  140.1724  163.8464 C.ar    1  UNL1        0.0020
     25 C         140.1652  140.8917  162.5798 C.ar    1  UNL1        0.0749
     26 C         139.1957  141.8575  161.9657 C.ar    1  UNL1        0.2900
     27 C         137.8677  142.1041  162.6181 C.ar    1  UNL1        0.0749
     28 C         137.5093  141.3849  163.8847 C.ar    1  UNL1        0.0020
     29 N         139.5541  142.5767  160.6990 N.pl3   1  UNL1        0.0809
     30 O         140.9909  142.8718  160.3850 O.2     1  UNL1        0.0415
     31 O         138.4758  143.0009  159.7465 O.co2   1  UNL1       -0.5760
@<TRIPOS>UNITY_ATOM_ATTR
29 1
charge 1
31 1
charge -1
@<TRIPOS>BOND
     1     6     7    1
     2     7     8   ar
     3     8     4    1
     4     4     3    1
     5     3     2    1
     6     2     1    1
     7     1    16    1
     8    16    17    1
     9    17    18    1
    10     1    20    1
    11    20    21    1
    12    21    22    1
    13    22    23    1
    14    23    24   ar
    15    24    25   ar
    16    25    26   ar
    17    26    29    1
    18    29    30    2
    19    29    31    1
    20    26    27   ar
    21    27    28   ar
    22     8     9   ar
    23     9    10   ar
    24    10    11    2
    25    10    12   ar
    26    12    13    1
    27    12    14   ar
    28    14    15    2
    29    14     7   ar
    30    28    23   ar
    31     4     5    1
    32    18    19    1
@<TRIPOS>MOLECULE
*****
 31 32 0 0 0
SMALL
GASTEIGER

@<TRIPOS>ATOM
      1 N         141.2097  138.0069  161.8466 N.3     1  UNL1       -0.2691
      2 C         142.5714  137.6647  161.3189 C.3     1  UNL1        0.0936
      3 C         143.6438  138.7126  161.2745 C.3     1  UNL1        0.1057
      4 N         144.5732  138.8844  162.4392 N.pl3   1  UNL1       -0.3180
      5 H         145.4607  138.4585  162.4277 H       1  UNL1        0.1482
      6 C         145.2332  141.8089  162.5487 C.3     1  UNL1        0.1363
      7 N         144.4803  141.1672  163.6763 N.ar    1  UNL1       -0.2675
      8 C         144.1503  139.7050  163.6216 C.ar    1  UNL1        0.1174
      9 C         143.3974  139.0634  164.7492 C.ar    1  UNL1        0.0933
     10 C         142.9746  139.8840  165.9315 C.ar    1  UNL1        0.2671
     11 O         142.2217  139.2423  167.0590 O.2     1  UNL1       -0.2668
     12 N         143.3046  141.3461  165.9861 N.ar    1  UNL1       -0.2467
     13 C         142.8817  142.1668  167.1685 C.3     1  UNL1        0.1382
     14 C         144.0575  141.9878  164.8585 C.ar    1  UNL1        0.3348
     15 O         144.3875  143.4501  164.9133 O.2     1  UNL1       -0.2462
     16 C         140.3190  138.9368  161.0772 C.3     1  UNL1        0.1043
     17 C         140.5346  140.4190  161.1569 C.3     1  UNL1        0.1544
     18 O         141.1378  141.0240  162.3899 O.3     1  UNL1       -0.3805
     19 H         140.5305  140.9079  163.1373 H       1  UNL1        0.2105
     20 C         140.7387  137.4192  163.1438 C.3     1  UNL1        0.0726
     21 C         139.2781  137.4298  163.4855 C.3     1  UNL1        0.0220
     22 C         138.7850  138.2435  164.6451 C.3     1  UNL1        0.0278
     23 C         138.6376  139.7300  164.5094 C.ar    1  UNL1       -0.0217
     24 C         137.7136  140.3007  163.4747 C.ar    1  UNL1        0.0020
     25 C         137.5663  141.7873  163.3391 C.ar    1  UNL1        0.0749
     26 C         138.3429  142.7031  164.2380 C.ar    1  UNL1        0.2900
     27 C         139.2669  142.1324  165.2726 C.ar    1  UNL1        0.0749
     28 C         139.4143  140.6459  165.4084 C.ar    1  UNL1        0.0020
     29 N         138.1955  144.1898  164.1023 N.pl3   1  UNL1        0.0809
     30 O         137.7323  144.7822  162.8045 O.2     1  UNL1        0.0415
     31 O         138.5114  145.0839  165.2645 O.co2   1  UNL1       -0.5760
@<TRIPOS>UNITY_ATOM_ATTR
29 1
charge 1
31 1
charge -1
@<TRIPOS>BOND
     1     6     7    1
     2     7     8   ar
     3     8     4    1
     4     4     3    1
     5     3     2    1
     6     2     1    1
     7     1    16    1
     8    16    17    1
     9    17    18    1
    10     1    20    1
    11    20    21    1
    12    21    22    1
    13    22    23    1
    14    23    24   ar
    15    24    25   ar
    16    25    26   ar
    17    26    29    1
    18    29    30    2
    19    29    31    1
    20    26    27   ar
    21    27    28   ar
    22     8     9   ar
    23     9    10   ar
    24    10    11    2
    25    10    12   ar
    26    12    13    1
    27    12    14   ar
    28    14    15    2
    29    14     7   ar
    30    28    23   ar
    31     4     5    1
    32    18    19    1
