@<TRIPOS>MOLECULE
*****
 41 47 0 0 0
SMALL
GASTEIGER

@<TRIPOS>ATOM
      1 C         137.7928  139.5682  161.9935 C.3     1  UNL1        0.0700
      2 C         138.4544  138.2867  162.4059 C.3     1  UNL1        0.0193
      3 C         139.0503  138.1574  163.7763 C.3     1  UNL1        0.0287
      4 C         138.9847  139.3097  164.7345 C.3     1  UNL1        0.0955
      5 C         138.3231  140.5913  164.3222 C.3     1  UNL1        0.0287
      6 C         137.7272  140.7205  162.9517 C.3     1  UNL1        0.0193
      7 O         138.6440  139.4278  163.9942 O.3     1  UNL1       -0.3571
      8 C         138.1052  139.5447  162.7550 C.3     1  UNL1        0.1562
      9 N         137.1969  139.6975  160.6231 N.3     1  UNL1       -0.2926
     10 H         136.9201  138.7597  160.3327 H       1  UNL1        0.1236
     11 C         138.0103  140.2752  159.5030 C.3     1  UNL1        0.1152
     12 O         141.6262  135.0857  154.9485 O.2     1  UNL1       -0.2707
     13 C         141.6797  136.1308  156.0232 C.2     1  UNL1        0.2718
     14 C         142.9918  136.4912  156.6543 C.3     1  UNL1        0.2898
     15 O         143.0453  137.5363  157.7290 O.3     1  UNL1       -0.4628
     16 C         141.7865  138.2210  158.1725 C.ar    1  UNL1        0.1708
     17 C         141.8399  139.2661  159.2472 C.ar    1  UNL1        0.0411
     18 C         140.5811  139.9508  159.6906 C.ar    1  UNL1        0.0193
     19 C         139.2690  139.5905  159.0595 C.ar    1  UNL1        0.0765
     20 N         139.2156  138.5453  157.9848 N.ar    1  UNL1       -0.2304
     21 C         140.4744  137.8606  157.5413 C.ar    1  UNL1        0.1682
     22 N         140.4209  136.8155  156.4667 N.am    1  UNL1       -0.2639
     23 H         139.5597  136.5790  156.0524 H       1  UNL1        0.1565
     24 C         139.5806  139.1805  166.1050 C.3     1  UNL1        0.0604
     25 C         140.7310  140.0545  166.5081 C.3     1  UNL1        0.1335
     26 O         141.2365  139.7568  165.1275 O.3     1  UNL1       -0.3806
     27 C         141.9872  140.8663  166.6225 C.3     1  UNL1        0.1402
     28 N         142.0176  141.4830  167.9895 N.ar    1  UNL1       -0.2896
     29 C         142.8266  142.3715  168.8985 C.ar    1  UNL1        0.2886
     30 O         144.1025  142.8822  168.2977 O.2     1  UNL1       -0.2645
     31 C         142.4504  142.7562  170.2987 C.ar    1  UNL1        0.1974
     32 F         143.3501  143.6516  171.0979 F       1  UNL1       -0.1991
     33 C         141.1745  142.2455  170.8997 C.ar    1  UNL1        0.0551
     34 C         140.2747  141.3501  170.1004 C.ar    1  UNL1        0.0994
     35 N         138.9741  140.7650  170.5654 N.ar    1  UNL1       -0.2400
     36 C         138.1791  139.8821  169.6498 C.ar    1  UNL1        0.1282
     37 C         138.6845  139.5844  168.2692 C.ar    1  UNL1        0.1588
     38 F         137.8894  138.7015  167.3536 F       1  UNL1       -0.2027
     39 C         139.9850  140.1695  167.8043 C.ar    1  UNL1        0.0500
     40 C         140.7801  141.0524  168.7199 C.ar    1  UNL1        0.0807
     41 H         142.0831  140.2093  164.9886 H       1  UNL1        0.2108
@<TRIPOS>BOND
     1    12    13    2
     2    13    14    1
     3    14    15    1
     4    15    16    1
     5    16    17   ar
     6    17    18   ar
     7    18    19   ar
     8    19    11    1
     9    11     9    1
    10     9     1    1
    11     1     2    1
    12     2     3    1
    13     3     4    1
    14     4    24    1
    15    24    25    1
    16    25    26    1
    17    25    27    1
    18    27    28    1
    19    28    29   ar
    20    29    30    2
    21    29    31   ar
    22    31    32    1
    23    31    33   ar
    24    33    34   ar
    25    34    35   ar
    26    35    36   ar
    27    36    37   ar
    28    37    38    1
    29    37    39   ar
    30    39    40   ar
    31     4     5    1
    32     5     6    1
    33     4     7    1
    34     7     8    1
    35    19    20   ar
    36    20    21   ar
    37    21    22    1
    38    22    13   am
    39    21    16   ar
    40     6     1    1
    41     8     1    1
    42    39    25    1
    43    40    28   ar
    44    40    34   ar
    45     9    10    1
    46    26    41    1
    47    22    23    1
@<TRIPOS>MOLECULE
*****
 41 47 0 0 0
SMALL
GASTEIGER

@<TRIPOS>ATOM
      1 C         137.7701  139.4760  162.0406 C.3     1  UNL1        0.0700
      2 C         137.6327  140.6207  163.0002 C.3     1  UNL1        0.0193
      3 C         138.2318  140.5255  164.3720 C.3     1  UNL1        0.0287
      4 C         138.9684  139.2854  164.7844 C.3     1  UNL1        0.0955
      5 C         139.1058  138.1407  163.8248 C.3     1  UNL1        0.0287
      6 C         138.5067  138.2360  162.4529 C.3     1  UNL1        0.0193
      7 O         138.6571  139.2913  164.0220 O.3     1  UNL1       -0.3571
      8 C         138.1153  139.3775  162.7816 C.3     1  UNL1        0.1562
      9 N         137.1710  139.5712  160.6688 N.3     1  UNL1       -0.2926
     10 H         137.0199  138.6154  160.3464 H       1  UNL1        0.1236
     11 C         137.9096  140.2851  159.5757 C.3     1  UNL1        0.1152
     12 O         143.9227  144.5217  162.1532 O.2     1  UNL1       -0.2707
     13 C         143.3976  143.3302  161.4084 C.2     1  UNL1        0.2718
     14 C         144.3517  142.3595  160.7781 C.3     1  UNL1        0.2898
     15 O         143.8266  141.1680  160.0334 O.3     1  UNL1       -0.4628
     16 C         142.3473  140.9473  159.9190 C.ar    1  UNL1        0.1708
     17 C         141.8222  139.7557  159.1742 C.ar    1  UNL1        0.0411
     18 C         140.3429  139.5351  159.0599 C.ar    1  UNL1        0.0193
     19 C         139.3888  140.5058  159.6901 C.ar    1  UNL1        0.0765
     20 N         139.9140  141.6973  160.4349 N.ar    1  UNL1       -0.2304
     21 C         141.3932  141.9180  160.5493 C.ar    1  UNL1        0.1682
     22 N         141.9183  143.1095  161.2940 N.am    1  UNL1       -0.2639
     23 H         141.2921  143.7467  161.7077 H       1  UNL1        0.1565
     24 C         139.5675  139.1902  166.1562 C.3     1  UNL1        0.0604
     25 C         140.7306  140.0610  166.5287 C.3     1  UNL1        0.1335
     26 O         141.2096  139.7440  165.1431 O.3     1  UNL1       -0.3806
     27 C         141.9940  140.8655  166.6116 C.3     1  UNL1        0.1402
     28 N         142.0526  141.4977  167.9706 N.ar    1  UNL1       -0.2896
     29 C         142.8835  142.3910  168.8548 C.ar    1  UNL1        0.2886
     30 O         144.1519  142.8861  168.2256 O.2     1  UNL1       -0.2645
     31 C         142.5347  142.7944  170.2568 C.ar    1  UNL1        0.1974
     32 F         143.4543  143.6927  171.0296 F       1  UNL1       -0.1991
     33 C         141.2662  142.2993  170.8861 C.ar    1  UNL1        0.0551
     34 C         140.3465  141.4009  170.1133 C.ar    1  UNL1        0.0994
     35 N         139.0506  140.8300  170.6079 N.ar    1  UNL1       -0.2400
     36 C         138.2336  139.9421  169.7167 C.ar    1  UNL1        0.1282
     37 C         138.7126  139.6251  168.3311 C.ar    1  UNL1        0.1588
     38 F         137.8955  138.7371  167.4399 F       1  UNL1       -0.2027
     39 C         140.0085  140.1960  167.8365 C.ar    1  UNL1        0.0500
     40 C         140.8255  141.0839  168.7276 C.ar    1  UNL1        0.0807
     41 H         142.0566  140.1891  164.9840 H       1  UNL1        0.2108
@<TRIPOS>BOND
     1    12    13    2
     2    13    14    1
     3    14    15    1
     4    15    16    1
     5    16    17   ar
     6    17    18   ar
     7    18    19   ar
     8    19    11    1
     9    11     9    1
    10     9     1    1
    11     1     2    1
    12     2     3    1
    13     3     4    1
    14     4    24    1
    15    24    25    1
    16    25    26    1
    17    25    27    1
    18    27    28    1
    19    28    29   ar
    20    29    30    2
    21    29    31   ar
    22    31    32    1
    23    31    33   ar
    24    33    34   ar
    25    34    35   ar
    26    35    36   ar
    27    36    37   ar
    28    37    38    1
    29    37    39   ar
    30    39    40   ar
    31     4     5    1
    32     5     6    1
    33     4     7    1
    34     7     8    1
    35    19    20   ar
    36    20    21   ar
    37    21    22    1
    38    22    13   am
    39    21    16   ar
    40     6     1    1
    41     8     1    1
    42    39    25    1
    43    40    28   ar
    44    40    34   ar
    45     9    10    1
    46    26    41    1
    47    22    23    1
@<TRIPOS>MOLECULE
*****
 41 47 0 0 0
SMALL
GASTEIGER

@<TRIPOS>ATOM
      1 C         138.1649  139.6663  160.9782 C.3     1  UNL1        0.0700
      2 C         138.4748  140.8243  161.8799 C.3     1  UNL1        0.0193
      3 C         139.2355  140.6008  163.1531 C.3     1  UNL1        0.0287
      4 C         139.6866  139.2193  163.5248 C.3     1  UNL1        0.0955
      5 C         139.3768  138.0613  162.6231 C.3     1  UNL1        0.0287
      6 C         138.6160  138.2847  161.3498 C.3     1  UNL1        0.0193
      7 O         139.2725  139.2924  162.8168 O.3     1  UNL1       -0.3571
      8 C         138.5845  139.4945  161.6655 C.3     1  UNL1        0.1562
      9 N         137.4042  139.8897  159.7049 N.3     1  UNL1       -0.2926
     10 H         136.9370  139.0106  159.4829 H       1  UNL1        0.1236
     11 C         138.1285  140.3206  158.4642 C.3     1  UNL1        0.1152
     12 O         142.0265  134.3960  155.2308 O.2     1  UNL1       -0.2707
     13 C         142.0262  135.7207  155.9345 C.2     1  UNL1        0.2718
     14 C         143.3248  136.3953  156.2640 C.3     1  UNL1        0.2898
     15 O         143.3244  137.7200  156.9676 O.3     1  UNL1       -0.4628
     16 C         142.0255  138.3702  157.3417 C.ar    1  UNL1        0.1708
     17 C         142.0251  139.6949  158.0454 C.ar    1  UNL1        0.0411
     18 C         140.7260  140.3450  158.4195 C.ar    1  UNL1        0.0193
     19 C         139.4275  139.6705  158.0900 C.ar    1  UNL1        0.0765
     20 N         139.4279  138.3457  157.3864 N.ar    1  UNL1       -0.2304
     21 C         140.7269  137.6956  157.0122 C.ar    1  UNL1        0.1682
     22 N         140.7272  136.3708  156.3086 N.am    1  UNL1       -0.2639
     23 H         139.8749  135.9281  156.0923 H       1  UNL1        0.1565
     24 C         140.4474  138.9958  164.7981 C.3     1  UNL1        0.0604
     25 C         139.8046  139.2994  166.1189 C.3     1  UNL1        0.1335
     26 O         138.7486  138.3447  165.6465 O.3     1  UNL1       -0.3806
     27 C         138.9411  139.4034  167.3411 C.3     1  UNL1        0.1402
     28 N         139.5978  140.3590  168.2927 N.ar    1  UNL1       -0.2896
     29 C         139.4565  141.0094  169.6444 C.ar    1  UNL1        0.2886
     30 O         138.2232  140.6140  170.4010 O.2     1  UNL1       -0.2645
     31 C         140.4275  141.9804  170.2479 C.ar    1  UNL1        0.1974
     32 F         140.1653  142.5559  171.6081 F       1  UNL1       -0.1991
     33 C         141.6609  142.3758  169.4914 C.ar    1  UNL1        0.0551
     34 C         141.9232  141.8003  168.1312 C.ar    1  UNL1        0.0994
     35 N         143.1071  142.1002  167.2602 N.ar    1  UNL1       -0.2400
     36 C         143.2349  141.4454  165.9168 C.ar    1  UNL1        0.1282
     37 C         142.1788  140.4906  165.4443 C.ar    1  UNL1        0.1588
     38 F         142.3067  139.8358  164.1008 F       1  UNL1       -0.2027
     39 C         140.9950  140.1907  166.3153 C.ar    1  UNL1        0.0500
     40 C         140.8672  140.8455  167.6587 C.ar    1  UNL1        0.0807
     41 H         138.0593  138.2638  166.3241 H       1  UNL1        0.2108
@<TRIPOS>BOND
     1    12    13    2
     2    13    14    1
     3    14    15    1
     4    15    16    1
     5    16    17   ar
     6    17    18   ar
     7    18    19   ar
     8    19    11    1
     9    11     9    1
    10     9     1    1
    11     1     2    1
    12     2     3    1
    13     3     4    1
    14     4    24    1
    15    24    25    1
    16    25    26    1
    17    25    27    1
    18    27    28    1
    19    28    29   ar
    20    29    30    2
    21    29    31   ar
    22    31    32    1
    23    31    33   ar
    24    33    34   ar
    25    34    35   ar
    26    35    36   ar
    27    36    37   ar
    28    37    38    1
    29    37    39   ar
    30    39    40   ar
    31     4     5    1
    32     5     6    1
    33     4     7    1
    34     7     8    1
    35    19    20   ar
    36    20    21   ar
    37    21    22    1
    38    22    13   am
    39    21    16   ar
    40     6     1    1
    41     8     1    1
    42    39    25    1
    43    40    28   ar
    44    40    34   ar
    45     9    10    1
    46    26    41    1
    47    22    23    1
@<TRIPOS>MOLECULE
*****
 41 47 0 0 0
SMALL
GASTEIGER

@<TRIPOS>ATOM
      1 C         144.4419  140.1931  157.2721 C.3     1  UNL1        0.0700
      2 C         145.0232  141.5745  157.2089 C.3     1  UNL1        0.0193
      3 C         144.8415  142.5180  158.3607 C.3     1  UNL1        0.0287
      4 C         144.0786  142.0802  159.5758 C.3     1  UNL1        0.0955
      5 C         143.4974  140.6988  159.6390 C.3     1  UNL1        0.0287
      6 C         143.6790  139.7553  158.4872 C.3     1  UNL1        0.0193
      7 O         144.1520  141.5279  158.9695 O.3     1  UNL1       -0.3571
      8 C         144.3163  140.6748  157.9280 C.3     1  UNL1        0.1562
      9 N         144.6236  139.2496  156.1202 N.3     1  UNL1       -0.2926
     10 H         145.2012  139.7327  155.4322 H       1  UNL1        0.1236
     11 C         143.4262  138.7223  155.3867 C.3     1  UNL1        0.1152
     12 O         144.9618  131.5140  157.9227 O.2     1  UNL1       -0.2707
     13 C         144.0414  132.4828  157.2414 C.2     1  UNL1        0.2718
     14 C         142.7125  132.0177  156.7240 C.3     1  UNL1        0.2898
     15 O         141.7921  132.9865  156.0426 O.3     1  UNL1       -0.4628
     16 C         142.2007  134.4204  155.8786 C.ar    1  UNL1        0.1708
     17 C         141.2803  135.3893  155.1973 C.ar    1  UNL1        0.0411
     18 C         141.6889  136.8233  155.0333 C.ar    1  UNL1        0.0193
     19 C         143.0177  137.2884  155.5506 C.ar    1  UNL1        0.0765
     20 N         143.9381  136.3194  156.2320 N.ar    1  UNL1       -0.2304
     21 C         143.5296  134.8855  156.3960 C.ar    1  UNL1        0.1682
     22 N         144.4500  133.9167  157.0774 N.am    1  UNL1       -0.2639
     23 H         145.3222  134.2220  157.4170 H       1  UNL1        0.1565
     24 C         143.8970  143.0237  160.7276 C.3     1  UNL1        0.0604
     25 C         142.5550  143.6419  160.9863 C.3     1  UNL1        0.1335
     26 O         142.6150  144.0007  159.5311 O.3     1  UNL1       -0.3806
     27 C         141.2255  144.3351  160.9408 C.3     1  UNL1        0.1402
     28 N         140.6244  144.2756  162.3137 N.ar    1  UNL1       -0.2896
     29 C         139.4198  144.6754  163.1257 C.ar    1  UNL1        0.2886
     30 O         138.3685  145.4196  162.3571 O.2     1  UNL1       -0.2645
     31 C         139.2197  144.3875  164.5842 C.ar    1  UNL1        0.1974
     32 F         137.9684  144.8439  165.2739 F       1  UNL1       -0.1991
     33 C         140.2710  143.6433  165.3529 C.ar    1  UNL1        0.0551
     34 C         141.5224  143.1868  164.6631 C.ar    1  UNL1        0.0994
     35 N         142.6555  142.4365  165.2979 N.ar    1  UNL1       -0.2400
     36 C         143.8486  142.0449  164.4775 C.ar    1  UNL1        0.1282
     37 C         143.9086  142.4036  163.0223 C.ar    1  UNL1        0.1588
     38 F         145.1018  142.0120  162.2019 F       1  UNL1       -0.2027
     39 C         142.7755  143.1540  162.3875 C.ar    1  UNL1        0.0500
     40 C         141.5824  143.5456  163.2079 C.ar    1  UNL1        0.0807
     41 H         141.8091  144.4800  159.2827 H       1  UNL1        0.2108
@<TRIPOS>BOND
     1    12    13    2
     2    13    14    1
     3    14    15    1
     4    15    16    1
     5    16    17   ar
     6    17    18   ar
     7    18    19   ar
     8    19    11    1
     9    11     9    1
    10     9     1    1
    11     1     2    1
    12     2     3    1
    13     3     4    1
    14     4    24    1
    15    24    25    1
    16    25    26    1
    17    25    27    1
    18    27    28    1
    19    28    29   ar
    20    29    30    2
    21    29    31   ar
    22    31    32    1
    23    31    33   ar
    24    33    34   ar
    25    34    35   ar
    26    35    36   ar
    27    36    37   ar
    28    37    38    1
    29    37    39   ar
    30    39    40   ar
    31     4     5    1
    32     5     6    1
    33     4     7    1
    34     7     8    1
    35    19    20   ar
    36    20    21   ar
    37    21    22    1
    38    22    13   am
    39    21    16   ar
    40     6     1    1
    41     8     1    1
    42    39    25    1
    43    40    28   ar
    44    40    34   ar
    45     9    10    1
    46    26    41    1
    47    22    23    1
@<TRIPOS>MOLECULE
*****
 41 47 0 0 0
SMALL
GASTEIGER

@<TRIPOS>ATOM
      1 C         143.1853  139.3683  159.9480 C.3     1  UNL1        0.0700
      2 C         143.7034  138.2088  160.7461 C.3     1  UNL1        0.0193
      3 C         143.1926  137.9666  162.1355 C.3     1  UNL1        0.0287
      4 C         142.1635  138.8841  162.7268 C.3     1  UNL1        0.0955
      5 C         141.6454  140.0436  161.9286 C.3     1  UNL1        0.0287
      6 C         142.1562  140.2857  160.5393 C.3     1  UNL1        0.0193
      7 O         142.4134  139.0571  161.9615 O.3     1  UNL1       -0.3571
      8 C         142.8753  139.2759  160.7052 C.3     1  UNL1        0.1562
      9 N         143.6961  139.6104  158.5586 N.3     1  UNL1       -0.2926
     10 H         144.0504  140.5667  158.5376 H       1  UNL1        0.1236
     11 C         142.7742  139.4643  157.3845 C.3     1  UNL1        0.1152
     12 O         144.7866  132.0719  155.9523 O.2     1  UNL1       -0.2707
     13 C         143.7664  133.1708  155.9157 C.2     1  UNL1        0.2718
     14 C         142.3966  132.9046  155.3653 C.3     1  UNL1        0.2898
     15 O         141.3763  134.0035  155.3288 O.3     1  UNL1       -0.4628
     16 C         141.7258  135.3687  155.8427 C.ar    1  UNL1        0.1708
     17 C         140.7055  136.4677  155.8062 C.ar    1  UNL1        0.0411
     18 C         141.0551  137.8329  156.3201 C.ar    1  UNL1        0.0193
     19 C         142.4247  138.0992  156.8705 C.ar    1  UNL1        0.0765
     20 N         143.4450  137.0001  156.9070 N.ar    1  UNL1       -0.2304
     21 C         143.0956  135.6349  156.3931 C.ar    1  UNL1        0.1682
     22 N         144.1158  134.5360  156.4297 N.am    1  UNL1       -0.2639
     23 H         145.0148  134.7107  156.7909 H       1  UNL1        0.1565
     24 C         141.6527  138.6419  164.1162 C.3     1  UNL1        0.0604
     25 C         142.1218  139.5061  165.2490 C.3     1  UNL1        0.1335
     26 O         143.3830  139.6056  164.4431 O.3     1  UNL1       -0.3806
     27 C         142.8546  140.3911  166.2133 C.3     1  UNL1        0.1402
     28 N         141.9481  140.6578  167.3783 N.ar    1  UNL1       -0.2896
     29 C         141.8543  141.3780  168.6984 C.ar    1  UNL1        0.2886
     30 O         143.0844  142.1479  169.0777 O.2     1  UNL1       -0.2645
     31 C         140.6631  141.3710  169.6100 C.ar    1  UNL1        0.1974
     32 F         140.7021  142.1339  170.9009 F       1  UNL1       -0.1991
     33 C         139.4329  140.6011  169.2307 C.ar    1  UNL1        0.0551
     34 C         139.3939  139.8382  167.9397 C.ar    1  UNL1        0.0994
     35 N         138.2400  139.0269  167.4296 N.ar    1  UNL1       -0.2400
     36 C         138.3473  138.3151  166.1136 C.ar    1  UNL1        0.1282
     37 C         139.6086  138.4146  165.3078 C.ar    1  UNL1        0.1588
     38 F         139.7159  137.7028  163.9918 F       1  UNL1       -0.2027
     39 C         140.7625  139.2259  165.8179 C.ar    1  UNL1        0.0500
     40 C         140.6551  139.9377  167.1339 C.ar    1  UNL1        0.0807
     41 H         144.0233  140.1632  164.9122 H       1  UNL1        0.2108
@<TRIPOS>BOND
     1    12    13    2
     2    13    14    1
     3    14    15    1
     4    15    16    1
     5    16    17   ar
     6    17    18   ar
     7    18    19   ar
     8    19    11    1
     9    11     9    1
    10     9     1    1
    11     1     2    1
    12     2     3    1
    13     3     4    1
    14     4    24    1
    15    24    25    1
    16    25    26    1
    17    25    27    1
    18    27    28    1
    19    28    29   ar
    20    29    30    2
    21    29    31   ar
    22    31    32    1
    23    31    33   ar
    24    33    34   ar
    25    34    35   ar
    26    35    36   ar
    27    36    37   ar
    28    37    38    1
    29    37    39   ar
    30    39    40   ar
    31     4     5    1
    32     5     6    1
    33     4     7    1
    34     7     8    1
    35    19    20   ar
    36    20    21   ar
    37    21    22    1
    38    22    13   am
    39    21    16   ar
    40     6     1    1
    41     8     1    1
    42    39    25    1
    43    40    28   ar
    44    40    34   ar
    45     9    10    1
    46    26    41    1
    47    22    23    1
@<TRIPOS>MOLECULE
*****
 41 47 0 0 0
SMALL
GASTEIGER

@<TRIPOS>ATOM
      1 C         139.8494  137.5320  164.2502 C.3     1  UNL1        0.0700
      2 C         141.3066  137.6158  164.5960 C.3     1  UNL1        0.0193
      3 C         142.3076  137.9853  163.5418 C.3     1  UNL1        0.0287
      4 C         141.8514  138.2709  162.1416 C.3     1  UNL1        0.0955
      5 C         140.3942  138.1870  161.7957 C.3     1  UNL1        0.0287
      6 C         139.3932  137.8175  162.8499 C.3     1  UNL1        0.0193
      7 O         141.2658  138.0724  162.6853 O.3     1  UNL1       -0.3571
      8 C         140.3607  137.7383  163.6386 C.3     1  UNL1        0.1562
      9 N         138.8484  137.1625  165.3044 N.3     1  UNL1       -0.2926
     10 H         138.0933  136.6653  164.8322 H       1  UNL1        0.1236
     11 C         138.2075  138.2323  166.1379 C.3     1  UNL1        0.1152
     12 O         137.8079  145.0441  162.3711 O.2     1  UNL1       -0.2707
     13 C         138.3737  144.2019  163.4758 C.2     1  UNL1        0.2718
     14 C         139.3720  144.7879  164.4297 C.3     1  UNL1        0.2898
     15 O         139.9378  143.9456  165.5344 O.3     1  UNL1       -0.4628
     16 C         139.5052  142.5173  165.6853 C.ar    1  UNL1        0.1708
     17 C         140.0710  141.6749  166.7900 C.ar    1  UNL1        0.0411
     18 C         139.6384  140.2466  166.9408 C.ar    1  UNL1        0.0193
     19 C         138.6401  139.6606  165.9870 C.ar    1  UNL1        0.0765
     20 N         138.0743  140.5030  164.8822 N.ar    1  UNL1       -0.2304
     21 C         138.5069  141.9313  164.7314 C.ar    1  UNL1        0.1682
     22 N         137.9411  142.7735  163.6266 N.am    1  UNL1       -0.2639
     23 H         137.2858  142.3889  163.0006 H       1  UNL1        0.1565
     24 C         142.8524  138.6403  161.0873 C.3     1  UNL1        0.0604
     25 C         142.9021  140.0433  160.5591 C.3     1  UNL1        0.1335
     26 O         142.9226  140.4214  162.0105 O.3     1  UNL1       -0.3806
     27 C         142.9561  141.5254  160.3343 C.3     1  UNL1        0.1402
     28 N         142.9587  141.7700  158.8544 N.ar    1  UNL1       -0.2896
     29 C         142.9943  142.8524  157.8068 C.ar    1  UNL1        0.2886
     30 O         143.0484  144.2481  158.3536 O.2     1  UNL1       -0.2645
     31 C         142.9794  142.6280  156.3237 C.ar    1  UNL1        0.1974
     32 F         143.0188  143.7993  155.3876 F       1  UNL1       -0.1991
     33 C         142.9252  141.2323  155.7769 C.ar    1  UNL1        0.0551
     34 C         142.8859  140.0609  156.7131 C.ar    1  UNL1        0.0994
     35 N         142.8305  138.6157  156.3152 N.ar    1  UNL1       -0.2400
     36 C         142.7956  137.5486  157.3688 C.ar    1  UNL1        0.1282
     37 C         142.8160  137.9267  158.8202 C.ar    1  UNL1        0.1588
     38 F         142.7810  136.8595  159.8738 F       1  UNL1       -0.2027
     39 C         142.8714  139.3719  159.2181 C.ar    1  UNL1        0.0500
     40 C         142.9063  140.4390  158.1645 C.ar    1  UNL1        0.0807
     41 H         142.9587  141.3873  162.0925 H       1  UNL1        0.2108
@<TRIPOS>BOND
     1    12    13    2
     2    13    14    1
     3    14    15    1
     4    15    16    1
     5    16    17   ar
     6    17    18   ar
     7    18    19   ar
     8    19    11    1
     9    11     9    1
    10     9     1    1
    11     1     2    1
    12     2     3    1
    13     3     4    1
    14     4    24    1
    15    24    25    1
    16    25    26    1
    17    25    27    1
    18    27    28    1
    19    28    29   ar
    20    29    30    2
    21    29    31   ar
    22    31    32    1
    23    31    33   ar
    24    33    34   ar
    25    34    35   ar
    26    35    36   ar
    27    36    37   ar
    28    37    38    1
    29    37    39   ar
    30    39    40   ar
    31     4     5    1
    32     5     6    1
    33     4     7    1
    34     7     8    1
    35    19    20   ar
    36    20    21   ar
    37    21    22    1
    38    22    13   am
    39    21    16   ar
    40     6     1    1
    41     8     1    1
    42    39    25    1
    43    40    28   ar
    44    40    34   ar
    45     9    10    1
    46    26    41    1
    47    22    23    1
@<TRIPOS>MOLECULE
*****
 41 47 0 0 0
SMALL
GASTEIGER

@<TRIPOS>ATOM
      1 C         139.2337  137.9298  163.2229 C.3     1  UNL1        0.0700
      2 C         140.5977  137.6128  162.6852 C.3     1  UNL1        0.0193
      3 C         140.9658  138.0172  161.2884 C.3     1  UNL1        0.0287
      4 C         139.9700  138.7386  160.4293 C.3     1  UNL1        0.0955
      5 C         138.6060  139.0555  160.9670 C.3     1  UNL1        0.0287
      6 C         138.2379  138.6512  162.3637 C.3     1  UNL1        0.0193
      7 O         139.7224  138.5372  161.1884 O.3     1  UNL1       -0.3571
      8 C         139.3896  138.1715  162.4514 C.3     1  UNL1        0.1562
      9 N         138.8655  137.5255  164.6196 N.3     1  UNL1       -0.2926
     10 H         138.0751  136.8854  164.5422 H       1  UNL1        0.1236
     11 C         138.4806  138.5692  165.6257 C.3     1  UNL1        0.1152
     12 O         140.4867  142.1863  172.2319 O.2     1  UNL1       -0.2707
     13 C         140.8666  141.6036  170.9030 C.2     1  UNL1        0.2718
     14 C         142.2951  141.6438  170.4471 C.3     1  UNL1        0.2898
     15 O         142.6750  141.0611  169.1182 O.3     1  UNL1       -0.4628
     16 C         141.6264  140.4381  168.2451 C.ar    1  UNL1        0.1708
     17 C         142.0063  139.8553  166.9161 C.ar    1  UNL1        0.0411
     18 C         140.9576  139.2324  166.0430 C.ar    1  UNL1        0.0193
     19 C         139.5292  139.1921  166.4988 C.ar    1  UNL1        0.0765
     20 N         139.1493  139.7749  167.8279 N.ar    1  UNL1       -0.2304
     21 C         140.1979  140.3979  168.7010 C.ar    1  UNL1        0.1682
     22 N         139.8180  140.9806  170.0299 N.am    1  UNL1       -0.2639
     23 H         138.8804  140.9542  170.3291 H       1  UNL1        0.1565
     24 C         140.3382  139.1429  159.0325 C.3     1  UNL1        0.0604
     25 C         141.5733  139.9584  158.7887 C.3     1  UNL1        0.1335
     26 O         141.0899  140.7538  159.9650 O.3     1  UNL1       -0.3806
     27 C         142.7073  140.9403  158.7909 C.3     1  UNL1        0.1402
     28 N         143.6334  140.5812  157.6668 N.ar    1  UNL1       -0.2896
     29 C         144.9140  140.9792  156.9800 C.ar    1  UNL1        0.2886
     30 O         145.5935  142.1776  157.5731 O.2     1  UNL1       -0.2645
     31 C         145.5193  140.2826  155.7974 C.ar    1  UNL1        0.1974
     32 F         146.8040  140.7845  155.2080 F       1  UNL1       -0.1991
     33 C         144.8399  139.0840  155.2043 C.ar    1  UNL1        0.0551
     34 C         143.5550  138.5820  155.7937 C.ar    1  UNL1        0.0994
     35 N         142.7652  137.4018  155.3108 N.ar    1  UNL1       -0.2400
     36 C         141.4920  137.0170  156.0042 C.ar    1  UNL1        0.1282
     37 C         141.0086  137.8124  157.1805 C.ar    1  UNL1        0.1588
     38 F         139.7354  137.4275  157.8739 F       1  UNL1       -0.2027
     39 C         141.7984  138.9926  157.6634 C.ar    1  UNL1        0.0500
     40 C         143.0716  139.3774  156.9700 C.ar    1  UNL1        0.0807
     41 H         141.7119  141.4762  160.1445 H       1  UNL1        0.2108
@<TRIPOS>BOND
     1    12    13    2
     2    13    14    1
     3    14    15    1
     4    15    16    1
     5    16    17   ar
     6    17    18   ar
     7    18    19   ar
     8    19    11    1
     9    11     9    1
    10     9     1    1
    11     1     2    1
    12     2     3    1
    13     3     4    1
    14     4    24    1
    15    24    25    1
    16    25    26    1
    17    25    27    1
    18    27    28    1
    19    28    29   ar
    20    29    30    2
    21    29    31   ar
    22    31    32    1
    23    31    33   ar
    24    33    34   ar
    25    34    35   ar
    26    35    36   ar
    27    36    37   ar
    28    37    38    1
    29    37    39   ar
    30    39    40   ar
    31     4     5    1
    32     5     6    1
    33     4     7    1
    34     7     8    1
    35    19    20   ar
    36    20    21   ar
    37    21    22    1
    38    22    13   am
    39    21    16   ar
    40     6     1    1
    41     8     1    1
    42    39    25    1
    43    40    28   ar
    44    40    34   ar
    45     9    10    1
    46    26    41    1
    47    22    23    1
@<TRIPOS>MOLECULE
*****
 41 47 0 0 0
SMALL
GASTEIGER

@<TRIPOS>ATOM
      1 C         144.4797  142.7825  161.5433 C.3     1  UNL1        0.0700
      2 C         144.2965  142.4753  160.0865 C.3     1  UNL1        0.0193
      3 C         143.1510  143.0806  159.3307 C.3     1  UNL1        0.0287
      4 C         142.1886  143.9932  160.0316 C.3     1  UNL1        0.0955
      5 C         142.3718  144.3004  161.4883 C.3     1  UNL1        0.0287
      6 C         143.5173  143.6950  162.2442 C.3     1  UNL1        0.0193
      7 O         142.8011  143.6852  160.4876 O.3     1  UNL1       -0.3571
      8 C         143.8370  143.1378  161.1710 C.3     1  UNL1        0.1562
      9 N         145.6253  142.1772  162.2991 N.3     1  UNL1       -0.2926
     10 H         146.2841  141.8263  161.6040 H       1  UNL1        0.1236
     11 C         145.3778  141.0569  163.2653 C.3     1  UNL1        0.1152
     12 O         138.2224  138.7255  165.2936 O.2     1  UNL1       -0.2707
     13 C         139.4349  138.5881  164.4213 C.2     1  UNL1        0.2718
     14 C         139.4747  137.5362  163.3527 C.3     1  UNL1        0.2898
     15 O         140.6872  137.3988  162.4803 O.3     1  UNL1       -0.4628
     16 C         141.8598  138.3133  162.6766 C.ar    1  UNL1        0.1708
     17 C         143.0724  138.1760  161.8042 C.ar    1  UNL1        0.0411
     18 C         144.2450  139.0906  162.0005 C.ar    1  UNL1        0.0193
     19 C         144.2052  140.1424  163.0691 C.ar    1  UNL1        0.0765
     20 N         142.9926  140.2797  163.9415 N.ar    1  UNL1       -0.2304
     21 C         141.8200  139.3652  163.7452 C.ar    1  UNL1        0.1682
     22 N         140.6075  139.5026  164.6176 N.am    1  UNL1       -0.2639
     23 H         140.5814  140.1930  165.3189 H       1  UNL1        0.1565
     24 C         141.0431  144.5985  159.2757 C.3     1  UNL1        0.0604
     25 C         139.9142  143.7309  158.8035 C.3     1  UNL1        0.1335
     26 O         140.0703  143.0706  160.1413 O.3     1  UNL1       -0.3806
     27 C         138.8179  142.7254  158.6109 C.3     1  UNL1        0.1402
     28 N         138.2202  142.9455  157.2529 N.ar    1  UNL1       -0.2896
     29 C         137.1644  142.4476  156.3003 C.ar    1  UNL1        0.2886
     30 O         136.3512  141.2976  156.8161 O.2     1  UNL1       -0.2645
     31 C         136.8922  143.0058  154.9349 C.ar    1  UNL1        0.1974
     32 F         135.8067  142.4141  154.0855 F       1  UNL1       -0.1991
     33 C         137.7054  144.1558  154.4189 C.ar    1  UNL1        0.0551
     34 C         138.7910  144.7475  155.2684 C.ar    1  UNL1        0.0994
     35 N         139.6817  145.8932  154.8889 N.ar    1  UNL1       -0.2400
     36 C         140.7286  146.3786  155.8472 C.ar    1  UNL1        0.1282
     37 C         140.8847  145.7183  157.1850 C.ar    1  UNL1        0.1588
     38 F         141.9317  146.2037  158.1433 F       1  UNL1       -0.2027
     39 C         139.9940  144.5726  157.5645 C.ar    1  UNL1        0.0500
     40 C         138.9471  144.0872  156.6061 C.ar    1  UNL1        0.0807
     41 H         139.4219  142.3542  160.2258 H       1  UNL1        0.2108
@<TRIPOS>BOND
     1    12    13    2
     2    13    14    1
     3    14    15    1
     4    15    16    1
     5    16    17   ar
     6    17    18   ar
     7    18    19   ar
     8    19    11    1
     9    11     9    1
    10     9     1    1
    11     1     2    1
    12     2     3    1
    13     3     4    1
    14     4    24    1
    15    24    25    1
    16    25    26    1
    17    25    27    1
    18    27    28    1
    19    28    29   ar
    20    29    30    2
    21    29    31   ar
    22    31    32    1
    23    31    33   ar
    24    33    34   ar
    25    34    35   ar
    26    35    36   ar
    27    36    37   ar
    28    37    38    1
    29    37    39   ar
    30    39    40   ar
    31     4     5    1
    32     5     6    1
    33     4     7    1
    34     7     8    1
    35    19    20   ar
    36    20    21   ar
    37    21    22    1
    38    22    13   am
    39    21    16   ar
    40     6     1    1
    41     8     1    1
    42    39    25    1
    43    40    28   ar
    44    40    34   ar
    45     9    10    1
    46    26    41    1
    47    22    23    1
@<TRIPOS>MOLECULE
*****
 41 47 0 0 0
SMALL
GASTEIGER

@<TRIPOS>ATOM
      1 C         143.2921  144.2624  163.4747 C.3     1  UNL1        0.0700
      2 C         143.5737  143.6093  162.1541 C.3     1  UNL1        0.0193
      3 C         142.6338  143.8100  161.0025 C.3     1  UNL1        0.0287
      4 C         141.4121  144.6639  161.1715 C.3     1  UNL1        0.0955
      5 C         141.1305  145.3171  162.4921 C.3     1  UNL1        0.0287
      6 C         142.0704  145.1163  163.6437 C.3     1  UNL1        0.0193
      7 O         141.8979  144.5832  161.8314 O.3     1  UNL1       -0.3571
      8 C         142.7479  144.4017  162.8727 C.3     1  UNL1        0.1562
      9 N         144.2320  144.0617  164.6263 N.3     1  UNL1       -0.2926
     10 H         145.1699  144.2627  164.2794 H       1  UNL1        0.1236
     11 C         144.3010  142.7310  165.3150 C.3     1  UNL1        0.1152
     12 O         140.5229  142.1441  172.1070 O.2     1  UNL1       -0.2707
     13 C         140.6111  141.8459  170.6396 C.2     1  UNL1        0.2718
     14 C         139.5282  141.0537  169.9688 C.3     1  UNL1        0.2898
     15 O         139.6165  140.7555  168.5014 O.3     1  UNL1       -0.4628
     16 C         140.7876  141.2494  167.7048 C.ar    1  UNL1        0.1708
     17 C         140.8759  140.9511  166.2374 C.ar    1  UNL1        0.0411
     18 C         142.0471  141.4450  165.4408 C.ar    1  UNL1        0.0193
     19 C         143.1298  142.2371  166.1116 C.ar    1  UNL1        0.0765
     20 N         143.0416  142.5354  167.5791 N.ar    1  UNL1       -0.2304
     21 C         141.8705  142.0415  168.3756 C.ar    1  UNL1        0.1682
     22 N         141.7822  142.3398  169.8430 N.am    1  UNL1       -0.2639
     23 H         142.4929  142.8597  170.2833 H       1  UNL1        0.1565
     24 C         140.4722  144.8646  160.0199 C.3     1  UNL1        0.0604
     25 C         139.5777  143.7446  159.5778 C.3     1  UNL1        0.1335
     26 O         139.3357  143.5679  161.0476 O.3     1  UNL1       -0.3806
     27 C         138.6325  142.5876  159.4431 C.3     1  UNL1        0.1402
     28 N         138.4774  142.2835  157.9825 N.ar    1  UNL1       -0.2896
     29 C         137.7877  141.3692  157.0035 C.ar    1  UNL1        0.2886
     30 O         136.8972  140.3392  157.6327 O.2     1  UNL1       -0.2645
     31 C         137.9317  141.4253  155.5114 C.ar    1  UNL1        0.1974
     32 F         137.1852  140.4514  154.6487 F       1  UNL1       -0.1991
     33 C         138.8222  142.4553  154.8821 C.ar    1  UNL1        0.0551
     34 C         139.5688  143.4293  155.7448 C.ar    1  UNL1        0.0994
     35 N         140.4908  144.5090  155.2610 N.ar    1  UNL1       -0.2400
     36 C         141.1707  145.4120  156.2470 C.ar    1  UNL1        0.1282
     37 C         140.9287  145.2353  157.7167 C.ar    1  UNL1        0.1588
     38 F         141.6087  146.1383  158.7027 F       1  UNL1       -0.2027
     39 C         140.0067  144.1555  158.2005 C.ar    1  UNL1        0.0500
     40 C         139.3268  143.2525  157.2145 C.ar    1  UNL1        0.0807
     41 H         138.7196  142.8318  161.1876 H       1  UNL1        0.2108
@<TRIPOS>BOND
     1    12    13    2
     2    13    14    1
     3    14    15    1
     4    15    16    1
     5    16    17   ar
     6    17    18   ar
     7    18    19   ar
     8    19    11    1
     9    11     9    1
    10     9     1    1
    11     1     2    1
    12     2     3    1
    13     3     4    1
    14     4    24    1
    15    24    25    1
    16    25    26    1
    17    25    27    1
    18    27    28    1
    19    28    29   ar
    20    29    30    2
    21    29    31   ar
    22    31    32    1
    23    31    33   ar
    24    33    34   ar
    25    34    35   ar
    26    35    36   ar
    27    36    37   ar
    28    37    38    1
    29    37    39   ar
    30    39    40   ar
    31     4     5    1
    32     5     6    1
    33     4     7    1
    34     7     8    1
    35    19    20   ar
    36    20    21   ar
    37    21    22    1
    38    22    13   am
    39    21    16   ar
    40     6     1    1
    41     8     1    1
    42    39    25    1
    43    40    28   ar
    44    40    34   ar
    45     9    10    1
    46    26    41    1
    47    22    23    1
