@<TRIPOS>MOLECULE
*****
 44 49 0 0 0
SMALL
GASTEIGER

@<TRIPOS>ATOM
      1 N         139.5190  138.6593  161.0878 N.am    1  UNL1       -0.2655
      2 C         140.6778  138.5024  160.1484 C.2     1  UNL1        0.3076
      3 O         142.0726  138.3940  160.6894 O.2     1  UNL1       -0.2522
      4 N         140.4418  138.4538  158.6678 N.am    1  UNL1       -0.2681
      5 H         139.5264  138.5249  158.3126 H       1  UNL1        0.1564
      6 C         141.6007  138.2969  157.7284 C.ar    1  UNL1        0.0517
      7 C         142.3943  139.4988  157.3092 C.ar    1  UNL1        0.0170
      8 C         143.5532  139.3420  156.3698 C.ar    1  UNL1        0.0309
      9 C         143.9185  137.9832  155.8497 C.ar    1  UNL1        0.1441
     10 F         145.0773  137.8264  154.9104 F       1  UNL1       -0.2042
     11 C         143.1249  136.7814  156.2690 C.ar    1  UNL1        0.1000
     12 C         141.9660  136.9382  157.2083 C.ar    1  UNL1        0.0208
     13 C         143.4902  135.4227  155.7489 C.3     1  UNL1        0.4207
     14 F         143.8555  134.0640  155.2289 F       1  UNL1       -0.1658
     15 F         143.0242  135.8213  154.3800 F       1  UNL1       -0.1658
     16 F         143.9562  135.0240  157.1179 F       1  UNL1       -0.1658
     17 C         139.7550  138.7079  162.5683 C.3     1  UNL1        0.0771
     18 C         139.3861  137.6403  163.5553 C.3     1  UNL1        0.0202
     19 C         139.8044  138.1052  164.9188 C.3     1  UNL1        0.0058
     20 C         140.4318  139.4600  164.7743 C.3     1  UNL1        0.0207
     21 C         140.9964  140.7751  164.3252 C.3     1  UNL1        0.0061
     22 C         140.4012  139.8325  163.3216 C.3     1  UNL1        0.0223
     23 C         140.7321  139.6499  166.2317 C.ar    1  UNL1       -0.0196
     24 C         142.1546  139.7413  166.6987 C.ar    1  UNL1       -0.0040
     25 C         142.4547  139.9312  168.1560 C.ar    1  UNL1        0.0057
     26 C         141.3325  140.0296  169.1463 C.ar    1  UNL1        0.0715
     27 C         141.3207  140.2162  170.6347 C.ar    1  UNL1        0.1674
     28 N         142.5269  140.3546  171.5155 N.pl3   1  UNL1       -0.3400
     29 N         139.8909  140.2401  171.0875 N.ar    1  UNL1       -0.0623
     30 O         139.0190  140.0683  169.8790 O.2     1  UNL1       -0.3522
     31 C         139.9100  139.9382  168.6793 C.ar    1  UNL1        0.1778
     32 C         139.6098  139.7483  167.2220 C.ar    1  UNL1        0.0360
     33 H         143.4292  140.3261  171.1226 H       1  UNL1        0.1438
     34 H         142.4164  140.4739  172.4864 H       1  UNL1        0.1438
     35 C         138.1241  138.7677  160.5466 C.3     1  UNL1        0.0963
     36 C         137.4449  140.1037  160.4859 C.3     1  UNL1        0.0389
     37 C         138.2634  141.3600  160.4443 C.3     1  UNL1        0.0739
     38 C         138.6754  144.8350  165.3182 C.3     1  UNL1        0.0897
     39 N         138.5724  143.9663  164.0997 N.3     1  UNL1       -0.2691
     40 C         139.4202  144.2576  162.8971 C.3     1  UNL1        0.0897
     41 C         139.3172  143.3888  161.6786 C.3     1  UNL1        0.0897
     42 N         138.3664  142.2287  161.6628 N.3     1  UNL1       -0.2703
     43 C         137.5186  141.9374  162.8655 C.3     1  UNL1        0.0897
     44 C         137.6216  142.8061  164.0839 C.3     1  UNL1        0.0897
@<TRIPOS>BOND
     1    38    39    1
     2    39    40    1
     3    40    41    1
     4    41    42    1
     5    42    37    1
     6    37    36    1
     7    36    35    1
     8    35     1    1
     9     1     2   am
    10     2     3    2
    11     2     4   am
    12     4     6    1
    13     6     7   ar
    14     7     8   ar
    15     8     9   ar
    16     9    10    1
    17     9    11   ar
    18    11    13    1
    19    13    14    1
    20    13    15    1
    21    13    16    1
    22    11    12   ar
    23    17     1    1
    24    17    18    1
    25    18    19    1
    26    19    20    1
    27    20    23    1
    28    23    24   ar
    29    24    25   ar
    30    25    26   ar
    31    26    27   ar
    32    27    28    1
    33    27    29   ar
    34    29    30   ar
    35    30    31   ar
    36    31    32   ar
    37    20    21    1
    38    22    21    1
    39    42    43    1
    40    43    44    1
    41    44    39    1
    42    12     6   ar
    43    22    17    1
    44    22    20    1
    45    32    23   ar
    46    31    26   ar
    47     4     5    1
    48    28    33    1
    49    28    34    1
@<TRIPOS>MOLECULE
*****
 44 49 0 0 0
SMALL
GASTEIGER

@<TRIPOS>ATOM
      1 N         141.9114  143.4503  160.8183 N.am    1  UNL1       -0.2655
      2 C         140.8739  143.9049  159.8351 C.2     1  UNL1        0.3076
      3 O         139.4579  144.1162  160.2828 O.2     1  UNL1       -0.2522
      4 N         141.2523  144.1482  158.4041 N.am    1  UNL1       -0.2681
      5 H         142.1816  144.0095  158.1102 H       1  UNL1        0.1564
      6 C         140.2146  144.6028  157.4209 C.ar    1  UNL1        0.0517
      7 C         139.2920  143.6033  156.7884 C.ar    1  UNL1        0.0170
      8 C         138.2543  144.0578  155.8052 C.ar    1  UNL1        0.0309
      9 C         138.1392  145.5118  155.4545 C.ar    1  UNL1        0.1441
     10 F         137.1016  145.9662  154.4714 F       1  UNL1       -0.2042
     11 C         139.0618  146.5111  156.0869 C.ar    1  UNL1        0.1000
     12 C         140.0995  146.0566  157.0701 C.ar    1  UNL1        0.0208
     13 C         138.9468  147.9650  155.7363 C.3     1  UNL1        0.4207
     14 F         138.8318  149.4189  155.3856 F       1  UNL1       -0.1658
     15 F         139.3552  147.6572  154.3261 F       1  UNL1       -0.1658
     16 F         138.5384  148.2728  157.1465 F       1  UNL1       -0.1658
     17 C         141.5331  143.2071  162.2493 C.3     1  UNL1        0.0771
     18 C         141.5532  144.2241  163.3517 C.3     1  UNL1        0.0202
     19 C         141.1007  143.5496  164.6128 C.3     1  UNL1        0.0058
     20 C         140.8011  142.1158  164.2898 C.3     1  UNL1        0.0207
     21 C         140.5866  140.7639  163.6763 C.3     1  UNL1        0.0061
     22 C         141.0683  141.9041  162.8290 C.3     1  UNL1        0.0223
     23 C         140.3934  141.7240  165.6792 C.ar    1  UNL1       -0.0196
     24 C         139.7510  140.3909  165.9246 C.ar    1  UNL1       -0.0040
     25 C         139.3435  139.9992  167.3139 C.ar    1  UNL1        0.0057
     26 C         139.5783  140.9405  168.4579 C.ar    1  UNL1        0.0715
     27 C         139.2849  140.8303  169.9249 C.ar    1  UNL1        0.1674
     28 N         138.6431  139.6605  170.6102 N.pl3   1  UNL1       -0.3400
     29 N         139.7460  142.0953  170.5861 N.ar    1  UNL1       -0.0623
     30 O         140.3243  142.9873  169.5278 O.2     1  UNL1       -0.3522
     31 C         140.2207  142.2736  168.2126 C.ar    1  UNL1        0.1778
     32 C         140.6283  142.6653  166.8232 C.ar    1  UNL1        0.0360
     33 H         138.3736  138.8709  170.0875 H       1  UNL1        0.1438
     34 H         138.4914  139.6823  171.5827 H       1  UNL1        0.1438
     35 C         143.3275  143.2390  160.3706 C.3     1  UNL1        0.0963
     36 C         144.4148  143.0493  161.3862 C.3     1  UNL1        0.0389
     37 C         144.9147  141.6706  161.7012 C.3     1  UNL1        0.0739
     38 C         143.0867  138.8837  166.6904 C.3     1  UNL1        0.0897
     39 N         143.5437  139.5804  165.4431 N.3     1  UNL1       -0.2691
     40 C         143.5840  138.8372  164.1408 C.3     1  UNL1        0.0897
     41 C         144.0410  139.5339  162.8935 C.3     1  UNL1        0.0897
     42 N         144.4577  140.9739  162.9485 N.3     1  UNL1       -0.2703
     43 C         144.4174  141.7171  164.2508 C.3     1  UNL1        0.0897
     44 C         143.9604  141.0204  165.4981 C.3     1  UNL1        0.0897
@<TRIPOS>BOND
     1    38    39    1
     2    39    40    1
     3    40    41    1
     4    41    42    1
     5    42    37    1
     6    37    36    1
     7    36    35    1
     8    35     1    1
     9     1     2   am
    10     2     3    2
    11     2     4   am
    12     4     6    1
    13     6     7   ar
    14     7     8   ar
    15     8     9   ar
    16     9    10    1
    17     9    11   ar
    18    11    13    1
    19    13    14    1
    20    13    15    1
    21    13    16    1
    22    11    12   ar
    23    17     1    1
    24    17    18    1
    25    18    19    1
    26    19    20    1
    27    20    23    1
    28    23    24   ar
    29    24    25   ar
    30    25    26   ar
    31    26    27   ar
    32    27    28    1
    33    27    29   ar
    34    29    30   ar
    35    30    31   ar
    36    31    32   ar
    37    20    21    1
    38    22    21    1
    39    42    43    1
    40    43    44    1
    41    44    39    1
    42    12     6   ar
    43    22    17    1
    44    22    20    1
    45    32    23   ar
    46    31    26   ar
    47     4     5    1
    48    28    33    1
    49    28    34    1
@<TRIPOS>MOLECULE
*****
 44 49 0 0 0
SMALL
GASTEIGER

@<TRIPOS>ATOM
      1 N         139.5212  140.4264  160.5753 N.am    1  UNL1       -0.2655
      2 C         139.0271  141.5146  159.6687 C.2     1  UNL1        0.3076
      3 O         138.4215  142.7577  160.2499 O.2     1  UNL1       -0.2522
      4 N         139.1385  141.3595  158.1808 N.am    1  UNL1       -0.2681
      5 H         139.5360  140.5436  157.7993 H       1  UNL1        0.1564
      6 C         138.6443  142.4476  157.2744 C.ar    1  UNL1        0.0517
      7 C         137.2690  142.3630  156.6815 C.ar    1  UNL1        0.0170
      8 C         136.7747  143.4511  155.7750 C.ar    1  UNL1        0.0309
      9 C         137.6558  144.6239  155.4614 C.ar    1  UNL1        0.1441
     10 F         137.1616  145.7119  154.5549 F       1  UNL1       -0.2042
     11 C         139.0311  144.7085  156.0542 C.ar    1  UNL1        0.1000
     12 C         139.5254  143.6204  156.9607 C.ar    1  UNL1        0.0208
     13 C         139.9121  145.8812  155.7405 C.3     1  UNL1        0.4207
     14 F         140.7933  147.0539  155.4268 F       1  UNL1       -0.1658
     15 F         138.9689  146.7866  156.4757 F       1  UNL1       -0.1658
     16 F         140.8555  144.9758  155.0053 F       1  UNL1       -0.1658
     17 C         139.4098  140.5815  162.0631 C.3     1  UNL1        0.0771
     18 C         138.2269  140.2004  162.9031 C.3     1  UNL1        0.0202
     19 C         138.5478  140.5282  164.3312 C.3     1  UNL1        0.0058
     20 C         139.9289  141.1119  164.3738 C.3     1  UNL1        0.0207
     21 C         141.3030  141.6506  164.1061 C.3     1  UNL1        0.0061
     22 C         140.4616  141.1448  162.9720 C.3     1  UNL1        0.0223
     23 C         139.9624  141.3271  165.8580 C.ar    1  UNL1       -0.0196
     24 C         140.4213  142.6421  166.4150 C.ar    1  UNL1       -0.0040
     25 C         140.4548  142.8572  167.8990 C.ar    1  UNL1        0.0057
     26 C         140.0294  141.7574  168.8261 C.ar    1  UNL1        0.0715
     27 C         139.9560  141.6781  170.3223 C.ar    1  UNL1        0.1674
     28 N         140.3226  142.7709  171.2822 N.pl3   1  UNL1       -0.3400
     29 N         139.4516  140.3141  170.6899 N.ar    1  UNL1       -0.0623
     30 O         139.2133  139.5505  169.4210 O.2     1  UNL1       -0.3522
     31 C         139.5704  140.4425  168.2691 C.ar    1  UNL1        0.1778
     32 C         139.5369  140.2274  166.7851 C.ar    1  UNL1        0.0360
     33 H         140.6458  143.6365  170.9425 H       1  UNL1        0.1438
     34 H         140.2399  142.6224  172.2519 H       1  UNL1        0.1438
     35 C         140.1268  139.1832  159.9940 C.3     1  UNL1        0.0963
     36 C         141.6174  139.0186  159.9635 C.3     1  UNL1        0.0389
     37 C         142.2707  137.9478  160.7859 C.3     1  UNL1        0.0739
     38 C         143.0506  138.7486  166.6809 C.3     1  UNL1        0.0897
     39 N         142.8556  138.5484  165.2072 N.3     1  UNL1       -0.2691
     40 C         141.6431  137.8237  164.7027 C.3     1  UNL1        0.0897
     41 C         141.4481  137.6235  163.2290 C.3     1  UNL1        0.0897
     42 N         142.4657  138.1480  162.2596 N.3     1  UNL1       -0.2703
     43 C         143.6782  138.8727  162.7641 C.3     1  UNL1        0.0897
     44 C         143.8732  139.0729  164.2378 C.3     1  UNL1        0.0897
@<TRIPOS>BOND
     1    38    39    1
     2    39    40    1
     3    40    41    1
     4    41    42    1
     5    42    37    1
     6    37    36    1
     7    36    35    1
     8    35     1    1
     9     1     2   am
    10     2     3    2
    11     2     4   am
    12     4     6    1
    13     6     7   ar
    14     7     8   ar
    15     8     9   ar
    16     9    10    1
    17     9    11   ar
    18    11    13    1
    19    13    14    1
    20    13    15    1
    21    13    16    1
    22    11    12   ar
    23    17     1    1
    24    17    18    1
    25    18    19    1
    26    19    20    1
    27    20    23    1
    28    23    24   ar
    29    24    25   ar
    30    25    26   ar
    31    26    27   ar
    32    27    28    1
    33    27    29   ar
    34    29    30   ar
    35    30    31   ar
    36    31    32   ar
    37    20    21    1
    38    22    21    1
    39    42    43    1
    40    43    44    1
    41    44    39    1
    42    12     6   ar
    43    22    17    1
    44    22    20    1
    45    32    23   ar
    46    31    26   ar
    47     4     5    1
    48    28    33    1
    49    28    34    1
@<TRIPOS>MOLECULE
*****
 44 49 0 0 0
SMALL
GASTEIGER

@<TRIPOS>ATOM
      1 N         143.2576  139.9479  161.2271 N.am    1  UNL1       -0.2655
      2 C         142.6678  138.9466  160.2786 C.2     1  UNL1        0.3076
      3 O         141.7855  137.8506  160.7982 O.2     1  UNL1       -0.2522
      4 N         142.9605  139.0415  158.8104 N.am    1  UNL1       -0.2681
      5 H         143.5396  139.7609  158.4693 H       1  UNL1        0.1564
      6 C         142.3707  138.0401  157.8620 C.ar    1  UNL1        0.0517
      7 C         140.9845  138.2417  157.3251 C.ar    1  UNL1        0.0170
      8 C         140.3946  137.2404  156.3767 C.ar    1  UNL1        0.0309
      9 C         141.1909  136.0376  155.9651 C.ar    1  UNL1        0.1441
     10 F         140.6010  135.0363  155.0168 F       1  UNL1       -0.2042
     11 C         142.5769  135.8360  156.5020 C.ar    1  UNL1        0.1000
     12 C         143.1668  136.8373  157.4505 C.ar    1  UNL1        0.0208
     13 C         143.3731  134.6333  156.0906 C.3     1  UNL1        0.4207
     14 F         144.1692  133.4304  155.6791 F       1  UNL1       -0.1658
     15 F         144.2770  135.5102  155.2758 F       1  UNL1       -0.1658
     16 F         142.4691  133.7562  156.9053 F       1  UNL1       -0.1658
     17 C         142.9650  139.8532  162.6952 C.3     1  UNL1        0.0771
     18 C         143.7679  139.0902  163.7067 C.3     1  UNL1        0.0202
     19 C         143.1172  139.2702  165.0462 C.3     1  UNL1        0.0058
     20 C         141.9122  140.1444  164.8625 C.3     1  UNL1        0.0207
     21 C         140.7944  141.0192  164.3775 C.3     1  UNL1        0.0061
     22 C         141.8181  140.5047  163.4094 C.3     1  UNL1        0.0223
     23 C         141.4953  140.1415  166.3034 C.ar    1  UNL1       -0.0196
     24 C         142.5019  140.4347  167.3761 C.ar    1  UNL1       -0.0040
     25 C         142.0850  140.4318  168.8169 C.ar    1  UNL1        0.0057
     26 C         140.6613  140.1356  169.1851 C.ar    1  UNL1        0.0715
     27 C         139.9618  140.0620  170.5100 C.ar    1  UNL1        0.1674
     28 N         140.5908  140.2875  171.8529 N.pl3   1  UNL1       -0.3400
     29 N         138.5228  139.7233  170.2561 N.ar    1  UNL1       -0.0623
     30 O         138.3330  139.5876  168.7744 O.2     1  UNL1       -0.3522
     31 C         139.6547  139.8424  168.1125 C.ar    1  UNL1        0.1778
     32 C         140.0717  139.8453  166.6716 C.ar    1  UNL1        0.0360
     33 H         141.5485  140.5064  171.9174 H       1  UNL1        0.1438
     34 H         140.0460  140.2167  172.6699 H       1  UNL1        0.1438
     35 C         144.1400  141.0441  160.7074 C.3     1  UNL1        0.0963
     36 C         144.8294  141.9697  161.6654 C.3     1  UNL1        0.0389
     37 C         144.4049  143.4054  161.7580 C.3     1  UNL1        0.0739
     38 C         138.8758  144.7839  163.6365 C.3     1  UNL1        0.0897
     39 N         140.2581  144.4393  163.1669 N.3     1  UNL1       -0.2691
     40 C         141.4308  144.6314  164.0822 C.3     1  UNL1        0.0897
     41 C         142.8131  144.2868  163.6126 C.3     1  UNL1        0.0897
     42 N         143.0227  143.7500  162.2276 N.3     1  UNL1       -0.2703
     43 C         141.8499  143.5578  161.3124 C.3     1  UNL1        0.0897
     44 C         140.4676  143.9024  161.7820 C.3     1  UNL1        0.0897
@<TRIPOS>BOND
     1    38    39    1
     2    39    40    1
     3    40    41    1
     4    41    42    1
     5    42    37    1
     6    37    36    1
     7    36    35    1
     8    35     1    1
     9     1     2   am
    10     2     3    2
    11     2     4   am
    12     4     6    1
    13     6     7   ar
    14     7     8   ar
    15     8     9   ar
    16     9    10    1
    17     9    11   ar
    18    11    13    1
    19    13    14    1
    20    13    15    1
    21    13    16    1
    22    11    12   ar
    23    17     1    1
    24    17    18    1
    25    18    19    1
    26    19    20    1
    27    20    23    1
    28    23    24   ar
    29    24    25   ar
    30    25    26   ar
    31    26    27   ar
    32    27    28    1
    33    27    29   ar
    34    29    30   ar
    35    30    31   ar
    36    31    32   ar
    37    20    21    1
    38    22    21    1
    39    42    43    1
    40    43    44    1
    41    44    39    1
    42    12     6   ar
    43    22    17    1
    44    22    20    1
    45    32    23   ar
    46    31    26   ar
    47     4     5    1
    48    28    33    1
    49    28    34    1
@<TRIPOS>MOLECULE
*****
 44 49 0 0 0
SMALL
GASTEIGER

@<TRIPOS>ATOM
      1 N         142.4402  139.5321  160.2870 N.am    1  UNL1       -0.2655
      2 C         143.2196  140.4214  159.3642 C.2     1  UNL1        0.3076
      3 O         144.1999  141.4088  159.9246 O.2     1  UNL1       -0.2522
      4 N         143.0187  140.3233  157.8809 N.am    1  UNL1       -0.2681
      5 H         142.3753  139.6753  157.5130 H       1  UNL1        0.1564
      6 C         143.7981  141.2127  156.9581 C.ar    1  UNL1        0.0517
      7 C         143.0798  142.1815  156.0660 C.ar    1  UNL1        0.0170
      8 C         143.8592  143.0709  155.1432 C.ar    1  UNL1        0.0309
      9 C         145.3568  142.9916  155.1125 C.ar    1  UNL1        0.1441
     10 F         146.1361  143.8810  154.1898 F       1  UNL1       -0.2042
     11 C         146.0751  142.0230  156.0046 C.ar    1  UNL1        0.1000
     12 C         145.2957  141.1335  156.9274 C.ar    1  UNL1        0.0208
     13 C         147.5726  141.9437  155.9739 C.3     1  UNL1        0.4207
     14 F         149.0702  141.8644  155.9431 F       1  UNL1       -0.1658
     15 F         147.6380  142.6719  157.2836 F       1  UNL1       -0.1658
     16 F         147.5072  141.2155  154.6641 F       1  UNL1       -0.1658
     17 C         142.6411  139.6301  161.7702 C.3     1  UNL1        0.0771
     18 C         143.5055  138.7316  162.6042 C.3     1  UNL1        0.0202
     19 C         143.4115  139.1901  164.0293 C.3     1  UNL1        0.0058
     20 C         142.4890  140.3719  164.0761 C.3     1  UNL1        0.0207
     21 C         141.5449  141.5076  163.8135 C.3     1  UNL1        0.0061
     22 C         142.0129  140.6439  162.6799 C.3     1  UNL1        0.0223
     23 C         142.5924  140.5930  165.5562 C.ar    1  UNL1       -0.0196
     24 C         142.5540  141.9861  166.1109 C.ar    1  UNL1       -0.0040
     25 C         142.6574  142.2070  167.5909 C.ar    1  UNL1        0.0057
     26 C         142.7992  141.0349  168.5161 C.ar    1  UNL1        0.0715
     27 C         142.9219  140.9432  170.0084 C.ar    1  UNL1        0.1674
     28 N         142.9291  142.0985  170.9651 N.pl3   1  UNL1       -0.3400
     29 N         143.0362  139.4934  170.3758 N.ar    1  UNL1       -0.0623
     30 O         142.9840  138.6892  169.1107 O.2     1  UNL1       -0.3522
     31 C         142.8375  139.6419  167.9614 C.ar    1  UNL1        0.1778
     32 C         142.7342  139.4209  166.4814 C.ar    1  UNL1        0.0360
     33 H         142.8482  143.0191  170.6258 H       1  UNL1        0.1438
     34 H         143.0148  141.9361  171.9323 H       1  UNL1        0.1438
     35 C         141.4599  138.5446  159.7265 C.3     1  UNL1        0.0963
     36 C         139.9885  138.8281  159.7934 C.3     1  UNL1        0.0389
     37 C         139.1178  138.0545  160.7385 C.3     1  UNL1        0.0739
     38 C         139.0307  139.4608  166.5708 C.3     1  UNL1        0.0897
     39 N         139.0525  139.1092  165.1127 N.3     1  UNL1       -0.2691
     40 C         139.8512  137.9320  164.6369 C.3     1  UNL1        0.0897
     41 C         139.8729  137.5804  163.1789 C.3     1  UNL1        0.0897
     42 N         139.0961  138.4060  162.1966 N.3     1  UNL1       -0.2703
     43 C         138.2974  139.5832  162.6724 C.3     1  UNL1        0.0897
     44 C         138.2756  139.9348  164.1304 C.3     1  UNL1        0.0897
@<TRIPOS>BOND
     1    38    39    1
     2    39    40    1
     3    40    41    1
     4    41    42    1
     5    42    37    1
     6    37    36    1
     7    36    35    1
     8    35     1    1
     9     1     2   am
    10     2     3    2
    11     2     4   am
    12     4     6    1
    13     6     7   ar
    14     7     8   ar
    15     8     9   ar
    16     9    10    1
    17     9    11   ar
    18    11    13    1
    19    13    14    1
    20    13    15    1
    21    13    16    1
    22    11    12   ar
    23    17     1    1
    24    17    18    1
    25    18    19    1
    26    19    20    1
    27    20    23    1
    28    23    24   ar
    29    24    25   ar
    30    25    26   ar
    31    26    27   ar
    32    27    28    1
    33    27    29   ar
    34    29    30   ar
    35    30    31   ar
    36    31    32   ar
    37    20    21    1
    38    22    21    1
    39    42    43    1
    40    43    44    1
    41    44    39    1
    42    12     6   ar
    43    22    17    1
    44    22    20    1
    45    32    23   ar
    46    31    26   ar
    47     4     5    1
    48    28    33    1
    49    28    34    1
@<TRIPOS>MOLECULE
*****
 44 49 0 0 0
SMALL
GASTEIGER

@<TRIPOS>ATOM
      1 N         142.3684  140.3158  160.8825 N.am    1  UNL1       -0.2655
      2 C         141.9512  139.2049  159.9650 C.2     1  UNL1        0.3076
      3 O         141.0216  138.1352  160.4566 O.2     1  UNL1       -0.2522
      4 N         142.4637  139.1636  158.5558 N.am    1  UNL1       -0.2681
      5 H         143.0738  139.8656  158.2330 H       1  UNL1        0.1564
      6 C         142.0464  138.0526  157.6383 C.ar    1  UNL1        0.0517
      7 C         140.7042  138.0962  156.9699 C.ar    1  UNL1        0.0170
      8 C         140.2868  136.9853  156.0525 C.ar    1  UNL1        0.0309
      9 C         141.2117  135.8308  155.8034 C.ar    1  UNL1        0.1441
     10 F         140.7944  134.7200  154.8860 F       1  UNL1       -0.2042
     11 C         142.5539  135.7873  156.4718 C.ar    1  UNL1        0.1000
     12 C         142.9712  136.8982  157.3892 C.ar    1  UNL1        0.0208
     13 C         143.4787  134.6330  156.2227 C.3     1  UNL1        0.4207
     14 F         144.4036  133.4786  155.9736 F       1  UNL1       -0.1658
     15 F         142.6235  133.7601  157.0926 F       1  UNL1       -0.1658
     16 F         144.3339  135.5059  155.3528 F       1  UNL1       -0.1658
     17 C         141.8560  140.3571  162.2916 C.3     1  UNL1        0.0771
     18 C         140.4803  140.7764  162.7176 C.3     1  UNL1        0.0202
     19 C         140.4035  140.6647  164.2114 C.3     1  UNL1        0.0058
     20 C         141.7317  140.1765  164.7087 C.3     1  UNL1        0.0207
     21 C         143.1375  139.6902  164.9021 C.3     1  UNL1        0.0061
     22 C         142.6295  139.9863  163.5222 C.3     1  UNL1        0.0223
     23 C         141.3609  140.1665  166.1622 C.ar    1  UNL1       -0.0196
     24 C         142.4010  140.4559  167.2035 C.ar    1  UNL1       -0.0040
     25 C         142.0301  140.4459  168.6569 C.ar    1  UNL1        0.0057
     26 C         140.6193  140.1465  169.0689 C.ar    1  UNL1        0.0715
     27 C         139.9624  140.0661  170.4151 C.ar    1  UNL1        0.1674
     28 N         140.6337  140.2862  171.7383 N.pl3   1  UNL1       -0.3400
     29 N         138.5163  139.7270  170.2057 N.ar    1  UNL1       -0.0623
     30 O         138.2795  139.5978  168.7301 O.2     1  UNL1       -0.3522
     31 C         139.5792  139.8571  168.0276 C.ar    1  UNL1        0.1778
     32 C         139.9500  139.8671  166.5742 C.ar    1  UNL1        0.0360
     33 H         141.5927  140.5058  171.7732 H       1  UNL1        0.1438
     34 H         140.1152  140.2110  172.5719 H       1  UNL1        0.1438
     35 C         143.2981  141.3855  160.3908 C.3     1  UNL1        0.0963
     36 C         144.2672  142.0299  161.3370 C.3     1  UNL1        0.0389
     37 C         144.0378  143.4372  161.8024 C.3     1  UNL1        0.0739
     38 C         138.9810  144.8500  164.7064 C.3     1  UNL1        0.0897
     39 N         140.2451  144.4968  163.9804 N.3     1  UNL1       -0.2691
     40 C         140.3238  144.6550  162.4908 C.3     1  UNL1        0.0897
     41 C         141.5880  144.3019  161.7649 C.3     1  UNL1        0.0897
     42 N         142.7736  143.7904  162.5284 N.3     1  UNL1       -0.2703
     43 C         142.6949  143.6322  164.0180 C.3     1  UNL1        0.0897
     44 C         141.4307  143.9853  164.7440 C.3     1  UNL1        0.0897
@<TRIPOS>BOND
     1    38    39    1
     2    39    40    1
     3    40    41    1
     4    41    42    1
     5    42    37    1
     6    37    36    1
     7    36    35    1
     8    35     1    1
     9     1     2   am
    10     2     3    2
    11     2     4   am
    12     4     6    1
    13     6     7   ar
    14     7     8   ar
    15     8     9   ar
    16     9    10    1
    17     9    11   ar
    18    11    13    1
    19    13    14    1
    20    13    15    1
    21    13    16    1
    22    11    12   ar
    23    17     1    1
    24    17    18    1
    25    18    19    1
    26    19    20    1
    27    20    23    1
    28    23    24   ar
    29    24    25   ar
    30    25    26   ar
    31    26    27   ar
    32    27    28    1
    33    27    29   ar
    34    29    30   ar
    35    30    31   ar
    36    31    32   ar
    37    20    21    1
    38    22    21    1
    39    42    43    1
    40    43    44    1
    41    44    39    1
    42    12     6   ar
    43    22    17    1
    44    22    20    1
    45    32    23   ar
    46    31    26   ar
    47     4     5    1
    48    28    33    1
    49    28    34    1
@<TRIPOS>MOLECULE
*****
 44 49 0 0 0
SMALL
GASTEIGER

@<TRIPOS>ATOM
      1 N         139.3903  139.6473  163.7516 N.am    1  UNL1       -0.2655
      2 C         139.6789  140.2694  165.0857 C.2     1  UNL1        0.3076
      3 O         139.7641  141.7614  165.2149 O.2     1  UNL1       -0.2522
      4 N         139.8823  139.3994  166.2907 N.am    1  UNL1       -0.2681
      5 H         139.8264  138.4201  166.2059 H       1  UNL1        0.1564
      6 C         140.1709  140.0215  167.6247 C.ar    1  UNL1        0.0517
      7 C         139.0907  140.1062  168.6621 C.ar    1  UNL1        0.0170
      8 C         139.3792  140.7283  169.9962 C.ar    1  UNL1        0.0309
      9 C         140.7479  141.2658  170.2929 C.ar    1  UNL1        0.1441
     10 F         141.0364  141.8879  171.6269 F       1  UNL1       -0.2042
     11 C         141.8280  141.1811  169.2555 C.ar    1  UNL1        0.1000
     12 C         141.5395  140.5590  167.9214 C.ar    1  UNL1        0.0208
     13 C         143.1966  141.7185  169.5521 C.3     1  UNL1        0.4207
     14 F         144.5652  142.2560  169.8486 F       1  UNL1       -0.1658
     15 F         143.4697  140.5365  170.4343 F       1  UNL1       -0.1658
     16 F         142.9236  142.9006  168.6698 F       1  UNL1       -0.1658
     17 C         139.1869  140.5172  162.5467 C.3     1  UNL1        0.0771
     18 C         137.8806  141.0911  162.0840 C.3     1  UNL1        0.0202
     19 C         138.1405  141.8946  160.8443 C.3     1  UNL1        0.0058
     20 C         139.6074  141.8172  160.5408 C.3     1  UNL1        0.0207
     21 C         141.0846  141.5606  160.4945 C.3     1  UNL1        0.0061
     22 C         140.2542  140.9659  161.5930 C.3     1  UNL1        0.0223
     23 C         139.5584  142.6743  159.3107 C.ar    1  UNL1       -0.0196
     24 C         138.5706  142.3703  158.2236 C.ar    1  UNL1       -0.0040
     25 C         138.5217  143.2274  156.9936 C.ar    1  UNL1        0.0057
     26 C         139.4606  144.3884  156.8507 C.ar    1  UNL1        0.0715
     27 C         139.6439  145.4027  155.7608 C.ar    1  UNL1        0.1674
     28 N         138.8632  145.4736  154.4820 N.pl3   1  UNL1       -0.3400
     29 N         140.7451  146.3335  156.1744 N.ar    1  UNL1       -0.0623
     30 O         141.2422  145.8945  157.5198 O.2     1  UNL1       -0.3522
     31 C         140.4484  144.6924  157.9378 C.ar    1  UNL1        0.1778
     32 C         140.4973  143.8354  159.1678 C.ar    1  UNL1        0.0360
     33 H         138.1558  144.8136  154.2999 H       1  UNL1        0.1438
     34 H         139.0583  146.1802  153.8247 H       1  UNL1        0.1438
     35 C         139.3051  138.1552  163.6225 C.3     1  UNL1        0.0963
     36 C         140.4706  137.3814  163.0814 C.3     1  UNL1        0.0389
     37 C         141.7611  137.3378  163.8446 C.3     1  UNL1        0.0739
     38 C         145.7487  141.7817  163.2519 C.3     1  UNL1        0.0897
     39 N         144.7518  140.6708  163.4001 N.3     1  UNL1       -0.2691
     40 C         144.2720  140.2706  164.7637 C.3     1  UNL1        0.0897
     41 C         143.2751  139.1596  164.9119 C.3     1  UNL1        0.0897
     42 N         142.7580  138.4488  163.6964 N.3     1  UNL1       -0.2703
     43 C         143.2379  138.8490  162.3327 C.3     1  UNL1        0.0897
     44 C         144.2348  139.9599  162.1845 C.3     1  UNL1        0.0897
@<TRIPOS>BOND
     1    38    39    1
     2    39    40    1
     3    40    41    1
     4    41    42    1
     5    42    37    1
     6    37    36    1
     7    36    35    1
     8    35     1    1
     9     1     2   am
    10     2     3    2
    11     2     4   am
    12     4     6    1
    13     6     7   ar
    14     7     8   ar
    15     8     9   ar
    16     9    10    1
    17     9    11   ar
    18    11    13    1
    19    13    14    1
    20    13    15    1
    21    13    16    1
    22    11    12   ar
    23    17     1    1
    24    17    18    1
    25    18    19    1
    26    19    20    1
    27    20    23    1
    28    23    24   ar
    29    24    25   ar
    30    25    26   ar
    31    26    27   ar
    32    27    28    1
    33    27    29   ar
    34    29    30   ar
    35    30    31   ar
    36    31    32   ar
    37    20    21    1
    38    22    21    1
    39    42    43    1
    40    43    44    1
    41    44    39    1
    42    12     6   ar
    43    22    17    1
    44    22    20    1
    45    32    23   ar
    46    31    26   ar
    47     4     5    1
    48    28    33    1
    49    28    34    1
@<TRIPOS>MOLECULE
*****
 44 49 0 0 0
SMALL
GASTEIGER

@<TRIPOS>ATOM
      1 N         143.6444  139.8881  163.5210 N.am    1  UNL1       -0.2655
      2 C         142.6148  140.0480  164.6000 C.2     1  UNL1        0.3076
      3 O         141.2194  139.5409  164.3863 O.2     1  UNL1       -0.2522
      4 N         142.9806  140.7150  165.8929 N.am    1  UNL1       -0.2681
      5 H         143.8965  141.0479  166.0332 H       1  UNL1        0.1564
      6 C         141.9509  140.8749  166.9719 C.ar    1  UNL1        0.0517
      7 C         141.0660  139.7212  167.3408 C.ar    1  UNL1        0.0170
      8 C         140.0362  139.8810  168.4198 C.ar    1  UNL1        0.0309
      9 C         139.8914  141.1945  169.1298 C.ar    1  UNL1        0.1441
     10 F         138.8617  141.3542  170.2087 F       1  UNL1       -0.2042
     11 C         140.7763  142.3481  168.7608 C.ar    1  UNL1        0.1000
     12 C         141.8060  142.1883  167.6818 C.ar    1  UNL1        0.0208
     13 C         140.6315  143.6614  169.4707 C.3     1  UNL1        0.4207
     14 F         140.4867  144.9748  170.1806 F       1  UNL1       -0.1658
     15 F         141.4558  143.1371  170.6090 F       1  UNL1       -0.1658
     16 F         139.8072  144.1858  168.3324 F       1  UNL1       -0.1658
     17 C         143.2787  139.2211  162.2282 C.3     1  UNL1        0.0771
     18 C         143.8429  137.9310  161.7113 C.3     1  UNL1        0.0202
     19 C         143.1974  137.6397  160.3890 C.3     1  UNL1        0.0058
     20 C         142.2342  138.7498  160.0887 C.3     1  UNL1        0.0207
     21 C         141.3682  139.9743  160.0639 C.3     1  UNL1        0.0061
     22 C         142.2845  139.7272  161.2255 C.3     1  UNL1        0.0223
     23 C         141.7698  138.2024  158.7716 C.ar    1  UNL1       -0.0196
     24 C         142.6949  137.3649  157.9393 C.ar    1  UNL1       -0.0040
     25 C         142.2304  136.8176  156.6222 C.ar    1  UNL1        0.0057
     26 C         140.8409  137.1078  156.1375 C.ar    1  UNL1        0.0715
     27 C         140.1088  136.7078  154.8908 C.ar    1  UNL1        0.1674
     28 N         140.6578  135.8654  153.7778 N.pl3   1  UNL1       -0.3400
     29 N         138.7312  137.2982  154.9527 N.ar    1  UNL1       -0.0623
     30 O         138.6120  138.0630  156.2376 O.2     1  UNL1       -0.3522
     31 C         139.9158  137.9454  156.9698 C.ar    1  UNL1        0.1778
     32 C         140.3803  138.4927  158.2868 C.ar    1  UNL1        0.0360
     33 H         141.5791  135.5221  153.8287 H       1  UNL1        0.1438
     34 H         140.0969  135.6558  152.9963 H       1  UNL1        0.1438
     35 C         145.0399  140.3952  163.7348 C.3     1  UNL1        0.0963
     36 C         145.3912  141.8048  163.3611 C.3     1  UNL1        0.0389
     37 C         144.9140  142.3766  162.0591 C.3     1  UNL1        0.0739
     38 C         140.0595  145.9004  161.9294 C.3     1  UNL1        0.0897
     39 N         141.2731  145.0194  161.9618 N.3     1  UNL1       -0.2691
     40 C         141.7078  144.2957  160.7220 C.3     1  UNL1        0.0897
     41 C         142.9215  143.4147  160.7544 C.3     1  UNL1        0.0897
     42 N         143.7004  143.2575  162.0267 N.3     1  UNL1       -0.2703
     43 C         143.2657  143.9812  163.2665 C.3     1  UNL1        0.0897
     44 C         142.0520  144.8622  163.2341 C.3     1  UNL1        0.0897
@<TRIPOS>BOND
     1    38    39    1
     2    39    40    1
     3    40    41    1
     4    41    42    1
     5    42    37    1
     6    37    36    1
     7    36    35    1
     8    35     1    1
     9     1     2   am
    10     2     3    2
    11     2     4   am
    12     4     6    1
    13     6     7   ar
    14     7     8   ar
    15     8     9   ar
    16     9    10    1
    17     9    11   ar
    18    11    13    1
    19    13    14    1
    20    13    15    1
    21    13    16    1
    22    11    12   ar
    23    17     1    1
    24    17    18    1
    25    18    19    1
    26    19    20    1
    27    20    23    1
    28    23    24   ar
    29    24    25   ar
    30    25    26   ar
    31    26    27   ar
    32    27    28    1
    33    27    29   ar
    34    29    30   ar
    35    30    31   ar
    36    31    32   ar
    37    20    21    1
    38    22    21    1
    39    42    43    1
    40    43    44    1
    41    44    39    1
    42    12     6   ar
    43    22    17    1
    44    22    20    1
    45    32    23   ar
    46    31    26   ar
    47     4     5    1
    48    28    33    1
    49    28    34    1
@<TRIPOS>MOLECULE
*****
 44 49 0 0 0
SMALL
GASTEIGER

@<TRIPOS>ATOM
      1 N         139.8724  140.5943  163.4201 N.am    1  UNL1       -0.2655
      2 C         140.4151  141.3289  164.6100 C.2     1  UNL1        0.3076
      3 O         140.6419  142.8099  164.5379 O.2     1  UNL1       -0.2522
      4 N         140.7309  140.5824  165.8723 N.am    1  UNL1       -0.2681
      5 H         140.5820  139.6103  165.9197 H       1  UNL1        0.1564
      6 C         141.2735  141.3170  167.0622 C.ar    1  UNL1        0.0517
      7 C         142.7533  141.5125  167.2120 C.ar    1  UNL1        0.0170
      8 C         143.2960  142.2471  168.4019 C.ar    1  UNL1        0.0309
      9 C         142.3590  142.7862  169.4419 C.ar    1  UNL1        0.1441
     10 F         142.9018  143.5208  170.6317 F       1  UNL1       -0.2042
     11 C         140.8794  142.5907  169.2921 C.ar    1  UNL1        0.1000
     12 C         140.3367  141.8561  168.1022 C.ar    1  UNL1        0.0208
     13 C         139.9425  143.1297  170.3320 C.3     1  UNL1        0.4207
     14 F         139.0056  143.6689  171.3720 F       1  UNL1       -0.1658
     15 F         139.5759  141.7300  170.7273 F       1  UNL1       -0.1658
     16 F         140.3092  144.5296  169.9367 F       1  UNL1       -0.1658
     17 C         139.5566  141.3408  162.1579 C.3     1  UNL1        0.0771
     18 C         138.1851  141.6189  161.6178 C.3     1  UNL1        0.0202
     19 C         138.3377  142.3902  160.3404 C.3     1  UNL1        0.0058
     20 C         139.8035  142.5887  160.0910 C.3     1  UNL1        0.0207
     21 C         141.3028  142.6276  160.1095 C.3     1  UNL1        0.0061
     22 C         140.5568  141.9401  161.2143 C.3     1  UNL1        0.0223
     23 C         139.6425  143.3518  158.8096 C.ar    1  UNL1       -0.0196
     24 C         140.2818  144.6997  158.6541 C.ar    1  UNL1       -0.0040
     25 C         140.1209  145.4628  157.3728 C.ar    1  UNL1        0.0057
     26 C         139.3206  144.8779  156.2470 C.ar    1  UNL1        0.0715
     27 C         138.9904  145.3923  154.8772 C.ar    1  UNL1        0.1674
     28 N         139.4270  146.7061  154.2998 N.pl3   1  UNL1       -0.3400
     29 N         138.1470  144.3623  154.1861 N.ar    1  UNL1       -0.0623
     30 O         137.9560  143.2113  155.1288 O.2     1  UNL1       -0.3522
     31 C         138.6813  143.5299  156.4025 C.ar    1  UNL1        0.1778
     32 C         138.8423  142.7669  157.6838 C.ar    1  UNL1        0.0360
     33 H         139.9825  147.3184  154.8344 H       1  UNL1        0.1438
     34 H         139.1580  146.9561  153.3864 H       1  UNL1        0.1438
     35 C         139.6456  139.1133  163.4923 C.3     1  UNL1        0.0963
     36 C         140.1694  138.2205  162.4068 C.3     1  UNL1        0.0389
     37 C         141.5933  137.7504  162.4441 C.3     1  UNL1        0.0739
     38 C         146.0033  141.6327  163.6605 C.3     1  UNL1        0.0897
     39 N         144.9008  140.6622  163.3564 N.3     1  UNL1       -0.2691
     40 C         144.3164  140.5993  161.9763 C.3     1  UNL1        0.0897
     41 C         143.2139  139.6288  161.6722 C.3     1  UNL1        0.0897
     42 N         142.6958  138.7210  162.7482 N.3     1  UNL1       -0.2703
     43 C         143.2802  138.7839  164.1283 C.3     1  UNL1        0.0897
     44 C         144.3827  139.7544  164.4324 C.3     1  UNL1        0.0897
@<TRIPOS>BOND
     1    38    39    1
     2    39    40    1
     3    40    41    1
     4    41    42    1
     5    42    37    1
     6    37    36    1
     7    36    35    1
     8    35     1    1
     9     1     2   am
    10     2     3    2
    11     2     4   am
    12     4     6    1
    13     6     7   ar
    14     7     8   ar
    15     8     9   ar
    16     9    10    1
    17     9    11   ar
    18    11    13    1
    19    13    14    1
    20    13    15    1
    21    13    16    1
    22    11    12   ar
    23    17     1    1
    24    17    18    1
    25    18    19    1
    26    19    20    1
    27    20    23    1
    28    23    24   ar
    29    24    25   ar
    30    25    26   ar
    31    26    27   ar
    32    27    28    1
    33    27    29   ar
    34    29    30   ar
    35    30    31   ar
    36    31    32   ar
    37    20    21    1
    38    22    21    1
    39    42    43    1
    40    43    44    1
    41    44    39    1
    42    12     6   ar
    43    22    17    1
    44    22    20    1
    45    32    23   ar
    46    31    26   ar
    47     4     5    1
    48    28    33    1
    49    28    34    1
