@<TRIPOS>MOLECULE
*****
 32 34 0 0 0
SMALL
GASTEIGER

@<TRIPOS>ATOM
      1 N         141.9780  140.1859  162.5666 N.3     1  UNL1       -0.2684
      2 C         142.5026  138.8849  163.0977 C.3     1  UNL1        0.1035
      3 C         142.6659  138.6895  164.5759 C.3     1  UNL1        0.1470
      4 C         142.8293  138.4941  166.0542 C.3     1  UNL1        0.1035
      5 N         142.4681  139.5998  167.0013 N.3     1  UNL1       -0.2673
      6 C         141.9435  140.9009  166.4701 C.3     1  UNL1        0.1035
      7 C         141.7802  141.0962  164.9919 C.3     1  UNL1        0.1470
      8 C         141.6168  141.2916  163.5137 C.3     1  UNL1        0.1035
      9 O         142.3047  139.7952  165.5230 O.3     1  UNL1       -0.3530
     10 C         141.8147  140.3813  161.0883 C.3     1  UNL1        0.0761
     11 C         140.4603  140.2428  160.4586 C.3     1  UNL1        0.0646
     12 C         139.7915  138.9012  160.4056 C.3     1  UNL1        0.2068
     13 O         138.5541  138.6475  161.2147 O.3     1  UNL1       -0.4754
     14 C         138.6470  139.1503  165.6855 C.ar    1  UNL1        0.0686
     15 C         138.1929  140.2826  164.8127 C.ar    1  UNL1        0.0134
     16 C         138.1620  140.1150  163.3225 C.ar    1  UNL1        0.0376
     17 C         138.5851  138.8151  162.7049 C.ar    1  UNL1        0.1386
     18 C         139.0391  137.6828  163.5777 C.ar    1  UNL1        0.0376
     19 C         139.0701  137.8504  165.0680 C.ar    1  UNL1        0.0134
     20 N         138.7089  139.4854  168.6661 N.1     1  UNL1       -0.1908
     21 C         138.6779  139.3179  167.1758 C.1     1  UNL1        0.1004
     22 C         142.6314  139.4045  168.4795 C.3     1  UNL1        0.0913
     23 C         142.4478  140.5634  169.4140 C.3     1  UNL1        0.1086
     24 N         141.0949  140.8522  169.9938 N.3     1  UNL1       -0.1745
     25 H         141.0565  140.3839  170.8991 H       1  UNL1        0.1488
     26 S         140.6638  142.2707  170.2214 S.O2    1  UNL1        0.1272
     27 O         140.2660  142.3812  168.7793 O.2     1  UNL1       -0.1497
     28 O         141.0615  142.1603  171.6634 O.2     1  UNL1       -0.1497
     29 C         140.2326  143.6893  170.4490 C.3     1  UNL1        0.5357
     30 F         141.5491  144.1745  169.9185 F       1  UNL1       -0.1493
     31 F         138.9161  143.2042  170.9794 F       1  UNL1       -0.1493
     32 F         139.8016  145.1079  170.6766 F       1  UNL1       -0.1493
@<TRIPOS>BOND
     1    20    21    3
     2    21    14    1
     3    14    15   ar
     4    15    16   ar
     5    16    17   ar
     6    17    13    1
     7    13    12    1
     8    12    11    1
     9    11    10    1
    10    10     1    1
    11     1     2    1
    12     2     3    1
    13     3     4    1
    14     4     5    1
    15     5    22    1
    16    22    23    1
    17    23    24    1
    18    24    26    1
    19    26    27    2
    20    26    28    2
    21    26    29    1
    22    29    30    1
    23    29    31    1
    24    29    32    1
    25     5     6    1
    26     6     7    1
    27     7     8    1
    28     7     9    1
    29    17    18   ar
    30    18    19   ar
    31    19    14   ar
    32     8     1    1
    33     9     3    1
    34    24    25    1
@<TRIPOS>MOLECULE
*****
 32 34 0 0 0
SMALL
GASTEIGER

@<TRIPOS>ATOM
      1 N         141.9683  143.5242  162.0354 N.3     1  UNL1       -0.2684
      2 C         141.3135  142.2114  161.7229 C.3     1  UNL1        0.1035
      3 C         141.4506  141.0597  162.6742 C.3     1  UNL1        0.1470
      4 C         141.5877  139.9080  163.6255 C.3     1  UNL1        0.1035
      5 N         142.3795  140.0692  164.8892 N.3     1  UNL1       -0.2673
      6 C         143.0343  141.3821  165.2016 C.3     1  UNL1        0.1035
      7 C         142.8973  142.5338  164.2504 C.3     1  UNL1        0.1470
      8 C         142.7602  143.6854  163.2991 C.3     1  UNL1        0.1035
      9 O         142.2425  141.2209  163.9379 O.3     1  UNL1       -0.3530
     10 C         141.8313  144.6759  161.0842 C.3     1  UNL1        0.0761
     11 C         140.4694  145.1741  160.7008 C.3     1  UNL1        0.0646
     12 C         139.6989  146.0510  161.6429 C.3     1  UNL1        0.2068
     13 O         138.4774  145.5199  162.3325 O.3     1  UNL1       -0.4754
     14 C         138.7919  141.9135  165.0055 C.ar    1  UNL1        0.0686
     15 C         139.4975  143.1846  165.3748 C.ar    1  UNL1        0.0134
     16 C         139.3927  144.3867  164.4839 C.ar    1  UNL1        0.0376
     17 C         138.5822  144.3178  163.2235 C.ar    1  UNL1        0.1386
     18 C         137.8766  143.0466  162.8542 C.ar    1  UNL1        0.0376
     19 C         137.9815  141.8445  163.7452 C.ar    1  UNL1        0.0134
     20 N         139.0016  139.5091  166.7874 N.1     1  UNL1       -0.1908
     21 C         138.8967  140.7113  165.8965 C.1     1  UNL1        0.1004
     22 C         142.5166  138.9176  165.8404 C.3     1  UNL1        0.0913
     23 C         142.8010  139.1727  167.2910 C.3     1  UNL1        0.1086
     24 N         141.8146  139.9338  168.1261 N.3     1  UNL1       -0.1745
     25 H         141.4198  139.2706  168.7930 H       1  UNL1        0.1488
     26 S         142.2638  141.1270  168.9163 S.O2    1  UNL1        0.1272
     27 O         143.2677  140.2740  169.6336 O.2     1  UNL1       -0.1497
     28 O         141.2599  141.9800  168.1990 O.2     1  UNL1       -0.1497
     29 C         142.7130  142.3203  169.7065 C.3     1  UNL1        0.5357
     30 F         143.9063  141.5508  170.1900 F       1  UNL1       -0.1493
     31 F         141.5197  143.0898  169.2230 F       1  UNL1       -0.1493
     32 F         143.1623  143.5135  170.4967 F       1  UNL1       -0.1493
@<TRIPOS>BOND
     1    20    21    3
     2    21    14    1
     3    14    15   ar
     4    15    16   ar
     5    16    17   ar
     6    17    13    1
     7    13    12    1
     8    12    11    1
     9    11    10    1
    10    10     1    1
    11     1     2    1
    12     2     3    1
    13     3     4    1
    14     4     5    1
    15     5    22    1
    16    22    23    1
    17    23    24    1
    18    24    26    1
    19    26    27    2
    20    26    28    2
    21    26    29    1
    22    29    30    1
    23    29    31    1
    24    29    32    1
    25     5     6    1
    26     6     7    1
    27     7     8    1
    28     7     9    1
    29    17    18   ar
    30    18    19   ar
    31    19    14   ar
    32     8     1    1
    33     9     3    1
    34    24    25    1
@<TRIPOS>MOLECULE
*****
 32 34 0 0 0
SMALL
GASTEIGER

@<TRIPOS>ATOM
      1 N         144.2252  140.7977  163.6487 N.3     1  UNL1       -0.2684
      2 C         143.3145  140.4864  162.4983 C.3     1  UNL1        0.1035
      3 C         142.5162  141.5818  161.8560 C.3     1  UNL1        0.1470
      4 C         141.7178  142.6773  161.2137 C.3     1  UNL1        0.1035
      5 N         141.8301  144.0841  161.7219 N.3     1  UNL1       -0.2673
      6 C         142.7409  144.3954  162.8724 C.3     1  UNL1        0.1035
      7 C         143.5393  143.3000  163.5147 C.3     1  UNL1        0.1470
      8 C         144.3376  142.2045  164.1569 C.3     1  UNL1        0.1035
      9 O         142.6286  142.9886  162.3642 O.3     1  UNL1       -0.3530
     10 C         145.0237  139.7022  164.2911 C.3     1  UNL1        0.0761
     11 C         144.3671  138.7659  165.2617 C.3     1  UNL1        0.0646
     12 C         143.0840  139.1589  165.9320 C.3     1  UNL1        0.2068
     13 O         143.0292  139.2969  167.4246 O.3     1  UNL1       -0.4754
     14 C         141.0570  142.8906  169.2809 C.ar    1  UNL1        0.0686
     15 C         142.0208  142.0665  170.0821 C.ar    1  UNL1        0.0134
     16 C         142.6782  140.8687  169.4633 C.ar    1  UNL1        0.0376
     17 C         142.3718  140.4948  168.0433 C.ar    1  UNL1        0.1386
     18 C         141.4080  141.3189  167.2421 C.ar    1  UNL1        0.0376
     19 C         140.7506  142.5168  167.8609 C.ar    1  UNL1        0.0134
     20 N         139.7422  145.2864  170.5184 N.1     1  UNL1       -0.1908
     21 C         140.3996  144.0885  169.8996 C.1     1  UNL1        0.1004
     22 C         141.0318  145.1796  161.0796 C.3     1  UNL1        0.0913
     23 C         140.0104  145.9317  161.8804 C.3     1  UNL1        0.1086
     24 N         138.6388  145.3569  162.0756 N.3     1  UNL1       -0.1745
     25 H         138.3344  145.0062  161.1675 H       1  UNL1        0.1488
     26 S         138.4240  144.2477  163.0623 S.O2    1  UNL1        0.1272
     27 O         139.1641  145.0318  164.1049 O.2     1  UNL1       -0.1497
     28 O         137.6838  143.4636  162.0196 O.2     1  UNL1       -0.1497
     29 C         138.2091  143.1384  164.0489 C.3     1  UNL1        0.5357
     30 F         139.1327  143.8190  165.0152 F       1  UNL1       -0.1493
     31 F         137.2855  142.4578  163.0827 F       1  UNL1       -0.1493
     32 F         137.9943  142.0292  165.0355 F       1  UNL1       -0.1493
@<TRIPOS>BOND
     1    20    21    3
     2    21    14    1
     3    14    15   ar
     4    15    16   ar
     5    16    17   ar
     6    17    13    1
     7    13    12    1
     8    12    11    1
     9    11    10    1
    10    10     1    1
    11     1     2    1
    12     2     3    1
    13     3     4    1
    14     4     5    1
    15     5    22    1
    16    22    23    1
    17    23    24    1
    18    24    26    1
    19    26    27    2
    20    26    28    2
    21    26    29    1
    22    29    30    1
    23    29    31    1
    24    29    32    1
    25     5     6    1
    26     6     7    1
    27     7     8    1
    28     7     9    1
    29    17    18   ar
    30    18    19   ar
    31    19    14   ar
    32     8     1    1
    33     9     3    1
    34    24    25    1
@<TRIPOS>MOLECULE
*****
 32 34 0 0 0
SMALL
GASTEIGER

@<TRIPOS>ATOM
      1 N         141.3744  144.3387  164.1655 N.3     1  UNL1       -0.2684
      2 C         140.0937  144.1041  164.9103 C.3     1  UNL1        0.1035
      3 C         139.9821  142.9538  165.8664 C.3     1  UNL1        0.1470
      4 C         139.8704  141.8034  166.8226 C.3     1  UNL1        0.1035
      5 N         141.0395  140.8877  167.0340 N.3     1  UNL1       -0.2673
      6 C         142.3203  141.1224  166.2893 C.3     1  UNL1        0.1035
      7 C         142.4319  142.2727  165.3331 C.3     1  UNL1        0.1470
      8 C         142.5435  143.4231  164.3770 C.3     1  UNL1        0.1035
      9 O         141.1512  142.0381  166.0778 O.3     1  UNL1       -0.3530
     10 C         141.4860  145.4891  163.2093 C.3     1  UNL1        0.0761
     11 C         140.3899  145.7506  162.2194 C.3     1  UNL1        0.0646
     12 C         140.2967  144.9276  160.9687 C.3     1  UNL1        0.2068
     13 O         139.1707  143.9519  160.7951 O.3     1  UNL1       -0.4754
     14 C         138.8111  140.4167  163.5560 C.ar    1  UNL1        0.0686
     15 C         140.0931  140.6643  162.8176 C.ar    1  UNL1        0.0134
     16 C         140.2129  141.8427  161.8973 C.ar    1  UNL1        0.0376
     17 C         139.0508  142.7735  161.7154 C.ar    1  UNL1        0.1386
     18 C         137.7688  142.5259  162.4538 C.ar    1  UNL1        0.0376
     19 C         137.6490  141.3474  163.3741 C.ar    1  UNL1        0.0134
     20 N         138.5713  138.0598  165.3967 N.1     1  UNL1       -0.1908
     21 C         138.6912  139.2383  164.4763 C.1     1  UNL1        0.1004
     22 C         140.9280  139.7374  167.9902 C.3     1  UNL1        0.0913
     23 C         141.5658  139.8237  169.3451 C.3     1  UNL1        0.1086
     24 N         140.8639  140.5406  170.4602 N.3     1  UNL1       -0.1745
     25 H         141.4274  140.4033  171.2993 H       1  UNL1        0.1488
     26 S         140.5966  142.0127  170.3543 S.O2    1  UNL1        0.1272
     27 O         139.1207  141.7466  170.3813 O.2     1  UNL1       -0.1497
     28 O         142.0725  142.2788  170.3273 O.2     1  UNL1       -0.1497
     29 C         140.3293  143.4850  170.2484 C.3     1  UNL1        0.5357
     30 F         139.2230  143.3563  171.2532 F       1  UNL1       -0.1493
     31 F         141.4355  143.6136  169.2436 F       1  UNL1       -0.1493
     32 F         140.0619  144.9571  170.1425 F       1  UNL1       -0.1493
@<TRIPOS>BOND
     1    20    21    3
     2    21    14    1
     3    14    15   ar
     4    15    16   ar
     5    16    17   ar
     6    17    13    1
     7    13    12    1
     8    12    11    1
     9    11    10    1
    10    10     1    1
    11     1     2    1
    12     2     3    1
    13     3     4    1
    14     4     5    1
    15     5    22    1
    16    22    23    1
    17    23    24    1
    18    24    26    1
    19    26    27    2
    20    26    28    2
    21    26    29    1
    22    29    30    1
    23    29    31    1
    24    29    32    1
    25     5     6    1
    26     6     7    1
    27     7     8    1
    28     7     9    1
    29    17    18   ar
    30    18    19   ar
    31    19    14   ar
    32     8     1    1
    33     9     3    1
    34    24    25    1
@<TRIPOS>MOLECULE
*****
 32 34 0 0 0
SMALL
GASTEIGER

@<TRIPOS>ATOM
      1 N         139.8407  138.4258  162.9991 N.3     1  UNL1       -0.2684
      2 C         138.7526  137.7962  163.8174 C.3     1  UNL1        0.1035
      3 C         138.5323  138.2332  165.2353 C.3     1  UNL1        0.1470
      4 C         138.3119  138.6701  166.6533 C.3     1  UNL1        0.1035
      5 N         139.1796  139.7368  167.2528 N.3     1  UNL1       -0.2673
      6 C         140.2676  140.3664  166.4344 C.3     1  UNL1        0.1035
      7 C         140.4880  139.9294  165.0165 C.3     1  UNL1        0.1470
      8 C         140.7083  139.4925  163.5986 C.3     1  UNL1        0.1035
      9 O         139.4000  139.2998  165.8349 O.3     1  UNL1       -0.3530
     10 C         140.0610  137.9889  161.5811 C.3     1  UNL1        0.0761
     11 C         139.2645  138.6103  160.4724 C.3     1  UNL1        0.0646
     12 C         138.0558  139.4396  160.7909 C.3     1  UNL1        0.2068
     13 O         138.0842  140.9228  160.5691 O.3     1  UNL1       -0.4754
     14 C         138.1007  143.7242  164.0907 C.ar    1  UNL1        0.0686
     15 C         137.6887  142.2934  164.2725 C.ar    1  UNL1        0.0134
     16 C         137.6832  141.3596  163.0987 C.ar    1  UNL1        0.0376
     17 C         138.0897  141.8566  161.7430 C.ar    1  UNL1        0.1386
     18 C         138.5017  143.2874  161.5612 C.ar    1  UNL1        0.0376
     19 C         138.5072  144.2212  162.7351 C.ar    1  UNL1        0.0134
     20 N         138.1117  145.5920  166.4384 N.1     1  UNL1       -0.1908
     21 C         138.1062  144.6581  165.2645 C.1     1  UNL1        0.1004
     22 C         138.9592  140.1737  168.6707 C.3     1  UNL1        0.0913
     23 C         140.1340  140.4616  169.5580 C.3     1  UNL1        0.1086
     24 N         140.5552  141.8793  169.8083 N.3     1  UNL1       -0.1745
     25 H         140.1032  142.1722  170.6745 H       1  UNL1        0.1488
     26 S         142.0105  142.2164  169.9438 S.O2    1  UNL1        0.1272
     27 O         142.3728  140.8280  169.5068 O.2     1  UNL1       -0.1497
     28 O         141.6482  143.6048  170.3808 O.2     1  UNL1       -0.1497
     29 C         143.4659  142.5536  170.0793 C.3     1  UNL1        0.5357
     30 F         143.1064  143.8063  170.8219 F       1  UNL1       -0.1493
     31 F         143.8253  141.3009  169.3367 F       1  UNL1       -0.1493
     32 F         144.9211  142.8909  170.2148 F       1  UNL1       -0.1493
@<TRIPOS>BOND
     1    20    21    3
     2    21    14    1
     3    14    15   ar
     4    15    16   ar
     5    16    17   ar
     6    17    13    1
     7    13    12    1
     8    12    11    1
     9    11    10    1
    10    10     1    1
    11     1     2    1
    12     2     3    1
    13     3     4    1
    14     4     5    1
    15     5    22    1
    16    22    23    1
    17    23    24    1
    18    24    26    1
    19    26    27    2
    20    26    28    2
    21    26    29    1
    22    29    30    1
    23    29    31    1
    24    29    32    1
    25     5     6    1
    26     6     7    1
    27     7     8    1
    28     7     9    1
    29    17    18   ar
    30    18    19   ar
    31    19    14   ar
    32     8     1    1
    33     9     3    1
    34    24    25    1
@<TRIPOS>MOLECULE
*****
 32 34 0 0 0
SMALL
GASTEIGER

@<TRIPOS>ATOM
      1 N         142.7863  139.5136  164.4559 N.3     1  UNL1       -0.2684
      2 C         141.4069  140.0824  164.3023 C.3     1  UNL1        0.1035
      3 C         140.5514  140.3124  165.5127 C.3     1  UNL1        0.1470
      4 C         139.6958  140.5424  166.7232 C.3     1  UNL1        0.1035
      5 N         140.2197  140.2036  168.0873 N.3     1  UNL1       -0.2673
      6 C         141.5992  139.6348  168.2409 C.3     1  UNL1        0.1035
      7 C         142.4547  139.4048  167.0304 C.3     1  UNL1        0.1470
      8 C         143.3102  139.1748  165.8200 C.3     1  UNL1        0.1035
      9 O         141.0753  139.9736  166.8768 O.3     1  UNL1       -0.3530
     10 C         143.6418  139.2836  163.2454 C.3     1  UNL1        0.0761
     11 C         144.5711  140.3600  162.7683 C.3     1  UNL1        0.0646
     12 C         145.4851  141.0466  163.7395 C.3     1  UNL1        0.2068
     13 O         145.0425  142.3055  164.4245 O.3     1  UNL1       -0.4754
     14 C         141.6169  144.6939  162.7480 C.ar    1  UNL1        0.0686
     15 C         141.5351  144.1403  164.1397 C.ar    1  UNL1        0.0134
     16 C         142.6769  143.3442  164.6985 C.ar    1  UNL1        0.0376
     17 C         143.9007  143.1016  163.8656 C.ar    1  UNL1        0.1386
     18 C         143.9825  143.6552  162.4739 C.ar    1  UNL1        0.0376
     19 C         142.8405  144.4513  161.9151 C.ar    1  UNL1        0.0134
     20 N         139.3331  146.2862  161.6303 N.1     1  UNL1       -0.1908
     21 C         140.4750  145.4900  162.1892 C.1     1  UNL1        0.1004
     22 C         139.3643  140.4336  169.2977 C.3     1  UNL1        0.0913
     23 C         139.9313  140.2159  170.6693 C.3     1  UNL1        0.1086
     24 N         140.6134  141.3429  171.3865 N.3     1  UNL1       -0.1745
     25 H         140.7535  141.0373  172.3494 H       1  UNL1        0.1488
     26 S         141.9367  141.8518  170.8968 S.O2    1  UNL1        0.1272
     27 O         141.3116  143.1796  170.5870 O.2     1  UNL1       -0.1497
     28 O         142.5619  140.5239  171.2065 O.2     1  UNL1       -0.1497
     29 C         143.2602  142.3605  170.4071 C.3     1  UNL1        0.5357
     30 F         143.7394  140.9495  170.2363 F       1  UNL1       -0.1493
     31 F         142.7809  143.7716  170.5778 F       1  UNL1       -0.1493
     32 F         144.5835  142.8693  169.9174 F       1  UNL1       -0.1493
@<TRIPOS>BOND
     1    20    21    3
     2    21    14    1
     3    14    15   ar
     4    15    16   ar
     5    16    17   ar
     6    17    13    1
     7    13    12    1
     8    12    11    1
     9    11    10    1
    10    10     1    1
    11     1     2    1
    12     2     3    1
    13     3     4    1
    14     4     5    1
    15     5    22    1
    16    22    23    1
    17    23    24    1
    18    24    26    1
    19    26    27    2
    20    26    28    2
    21    26    29    1
    22    29    30    1
    23    29    31    1
    24    29    32    1
    25     5     6    1
    26     6     7    1
    27     7     8    1
    28     7     9    1
    29    17    18   ar
    30    18    19   ar
    31    19    14   ar
    32     8     1    1
    33     9     3    1
    34    24    25    1
@<TRIPOS>MOLECULE
*****
 32 34 0 0 0
SMALL
GASTEIGER

@<TRIPOS>ATOM
      1 N         143.4102  140.2306  162.8649 N.3     1  UNL1       -0.2684
      2 C         143.9040  139.8234  164.2215 C.3     1  UNL1        0.1035
      3 C         143.0782  140.1156  165.4391 C.3     1  UNL1        0.1470
      4 C         142.2523  140.4078  166.6568 C.3     1  UNL1        0.1035
      5 N         140.9327  141.1072  166.5178 N.3     1  UNL1       -0.2673
      6 C         140.4389  141.5145  165.1612 C.3     1  UNL1        0.1035
      7 C         141.2647  141.2223  163.9436 C.3     1  UNL1        0.1470
      8 C         142.0905  140.9301  162.7260 C.3     1  UNL1        0.1035
      9 O         141.7585  140.8150  165.3001 O.3     1  UNL1       -0.3530
     10 C         144.2360  139.9384  161.6473 C.3     1  UNL1        0.0761
     11 C         143.7643  138.9256  160.6465 C.3     1  UNL1        0.0646
     12 C         143.1059  137.6609  161.1126 C.3     1  UNL1        0.2068
     13 O         141.6143  137.5207  161.0388 O.3     1  UNL1       -0.4754
     14 C         139.1173  138.0648  164.7427 C.ar    1  UNL1        0.0686
     15 C         138.5737  138.4717  163.4052 C.ar    1  UNL1        0.0134
     16 C         139.4060  138.2904  162.1706 C.ar    1  UNL1        0.0376
     17 C         140.7820  137.7020  162.2734 C.ar    1  UNL1        0.1386
     18 C         141.3256  137.2951  163.6109 C.ar    1  UNL1        0.0376
     19 C         140.4932  137.4765  164.8455 C.ar    1  UNL1        0.0134
     20 N         137.4525  138.4276  167.2119 N.1     1  UNL1       -0.1908
     21 C         138.2849  138.2462  165.9773 C.1     1  UNL1        0.1004
     22 C         140.1068  141.3994  167.7354 C.3     1  UNL1        0.0913
     23 C         140.0339  140.3983  168.8502 C.3     1  UNL1        0.1086
     24 N         140.6551  140.7095  170.1795 N.3     1  UNL1       -0.1745
     25 H         140.8794  139.8155  170.6162 H       1  UNL1        0.1488
     26 S         141.8962  141.5490  170.2492 S.O2    1  UNL1        0.1272
     27 O         142.7235  140.3577  169.8669 O.2     1  UNL1       -0.1497
     28 O         141.0688  142.7404  170.6315 O.2     1  UNL1       -0.1497
     29 C         143.1373  142.3886  170.3190 C.3     1  UNL1        0.5357
     30 F         142.2951  143.6281  170.3845 F       1  UNL1       -0.1493
     31 F         143.9795  141.1491  170.2535 F       1  UNL1       -0.1493
     32 F         144.3783  143.2282  170.3887 F       1  UNL1       -0.1493
@<TRIPOS>BOND
     1    20    21    3
     2    21    14    1
     3    14    15   ar
     4    15    16   ar
     5    16    17   ar
     6    17    13    1
     7    13    12    1
     8    12    11    1
     9    11    10    1
    10    10     1    1
    11     1     2    1
    12     2     3    1
    13     3     4    1
    14     4     5    1
    15     5    22    1
    16    22    23    1
    17    23    24    1
    18    24    26    1
    19    26    27    2
    20    26    28    2
    21    26    29    1
    22    29    30    1
    23    29    31    1
    24    29    32    1
    25     5     6    1
    26     6     7    1
    27     7     8    1
    28     7     9    1
    29    17    18   ar
    30    18    19   ar
    31    19    14   ar
    32     8     1    1
    33     9     3    1
    34    24    25    1
@<TRIPOS>MOLECULE
*****
 32 34 0 0 0
SMALL
GASTEIGER

@<TRIPOS>ATOM
      1 N         143.5801  140.4058  163.4056 N.3     1  UNL1       -0.2684
      2 C         142.4812  141.2944  163.9083 C.3     1  UNL1        0.1035
      3 C         141.9321  141.0994  165.2904 C.3     1  UNL1        0.1470
      4 C         141.3830  140.9045  166.6727 C.3     1  UNL1        0.1035
      5 N         141.9328  139.8208  167.5521 N.3     1  UNL1       -0.2673
      6 C         143.0317  138.9322  167.0494 C.3     1  UNL1        0.1035
      7 C         143.5808  139.1272  165.6672 C.3     1  UNL1        0.1470
      8 C         144.1299  139.3222  164.2850 C.3     1  UNL1        0.1035
      9 O         142.4819  140.0158  166.1699 O.3     1  UNL1       -0.3530
     10 C         144.1293  140.6008  162.0233 C.3     1  UNL1        0.0761
     11 C         143.3357  141.3593  161.0011 C.3     1  UNL1        0.0646
     12 C         143.8603  142.6537  160.4539 C.3     1  UNL1        0.2068
     13 O         142.9736  143.8627  160.4076 O.3     1  UNL1       -0.4754
     14 C         140.1319  144.6995  163.7950 C.ar    1  UNL1        0.0686
     15 C         141.5865  145.0379  163.9353 C.ar    1  UNL1        0.0134
     16 C         142.5337  144.7589  162.8062 C.ar    1  UNL1        0.0376
     17 C         142.0264  144.1416  161.5367 C.ar    1  UNL1        0.1386
     18 C         140.5718  143.8032  161.3964 C.ar    1  UNL1        0.0376
     19 C         139.6246  144.0822  162.5256 C.ar    1  UNL1        0.0134
     20 N         138.2374  145.2574  166.0533 N.1     1  UNL1       -0.1908
     21 C         139.1847  144.9784  164.9241 C.1     1  UNL1        0.1004
     22 C         141.3837  139.6258  168.9343 C.3     1  UNL1        0.0913
     23 C         142.3110  139.6007  170.1131 C.3     1  UNL1        0.1086
     24 N         142.4406  140.8098  170.9913 N.3     1  UNL1       -0.1745
     25 H         143.4320  141.0477  171.0205 H       1  UNL1        0.1488
     26 S         141.7029  142.0696  170.6466 S.O2    1  UNL1        0.1272
     27 O         140.5999  141.6807  171.5858 O.2     1  UNL1       -0.1497
     28 O         142.8059  142.4585  169.7075 O.2     1  UNL1       -0.1497
     29 C         140.9653  143.3294  170.3019 C.3     1  UNL1        0.5357
     30 F         142.2544  144.0951  170.3419 F       1  UNL1       -0.1493
     31 F         139.6761  142.5637  170.2619 F       1  UNL1       -0.1493
     32 F         140.2277  144.5892  169.9572 F       1  UNL1       -0.1493
@<TRIPOS>BOND
     1    20    21    3
     2    21    14    1
     3    14    15   ar
     4    15    16   ar
     5    16    17   ar
     6    17    13    1
     7    13    12    1
     8    12    11    1
     9    11    10    1
    10    10     1    1
    11     1     2    1
    12     2     3    1
    13     3     4    1
    14     4     5    1
    15     5    22    1
    16    22    23    1
    17    23    24    1
    18    24    26    1
    19    26    27    2
    20    26    28    2
    21    26    29    1
    22    29    30    1
    23    29    31    1
    24    29    32    1
    25     5     6    1
    26     6     7    1
    27     7     8    1
    28     7     9    1
    29    17    18   ar
    30    18    19   ar
    31    19    14   ar
    32     8     1    1
    33     9     3    1
    34    24    25    1
@<TRIPOS>MOLECULE
*****
 32 34 0 0 0
SMALL
GASTEIGER

@<TRIPOS>ATOM
      1 N         144.5337  142.1651  163.5773 N.3     1  UNL1       -0.2684
      2 C         144.1659  142.3134  162.1307 C.3     1  UNL1        0.1035
      3 C         143.0728  143.2583  161.7278 C.3     1  UNL1        0.1470
      4 C         141.9796  144.2032  161.3249 C.3     1  UNL1        0.1035
      5 N         141.2544  144.9998  162.3687 N.3     1  UNL1       -0.2673
      6 C         141.6223  144.8515  163.8153 C.3     1  UNL1        0.1035
      7 C         142.7154  143.9066  164.2182 C.3     1  UNL1        0.1470
      8 C         143.8084  142.9618  164.6210 C.3     1  UNL1        0.1035
      9 O         142.3475  144.0549  162.7716 O.3     1  UNL1       -0.3530
     10 C         145.6269  141.2202  163.9802 C.3     1  UNL1        0.0761
     11 C         145.3464  139.7506  164.0868 C.3     1  UNL1        0.0646
     12 C         144.0969  139.2728  164.7656 C.3     1  UNL1        0.2068
     13 O         142.7782  139.3587  164.0561 O.3     1  UNL1       -0.4754
     14 C         138.9677  138.4547  166.2726 C.ar    1  UNL1        0.0686
     15 C         139.8755  139.5466  166.7559 C.ar    1  UNL1        0.0134
     16 C         141.1456  139.8479  166.0171 C.ar    1  UNL1        0.0376
     17 C         141.5080  139.0573  164.7949 C.ar    1  UNL1        0.1386
     18 C         140.6002  137.9654  164.3116 C.ar    1  UNL1        0.0376
     19 C         139.3300  137.6641  165.0505 C.ar    1  UNL1        0.0134
     20 N         136.4274  137.8520  167.7503 N.1     1  UNL1       -0.1908
     21 C         137.6976  138.1533  167.0114 C.1     1  UNL1        0.1004
     22 C         140.1613  145.9446  161.9658 C.3     1  UNL1        0.0913
     23 C         138.7440  145.6694  162.3730 C.3     1  UNL1        0.1086
     24 N         138.0781  144.3921  161.9547 N.3     1  UNL1       -0.1745
     25 H         138.6148  144.0237  161.1694 H       1  UNL1        0.1488
     26 S         137.9237  143.2699  162.9379 S.O2    1  UNL1        0.1272
     27 O         138.0303  144.2475  164.0705 O.2     1  UNL1       -0.1497
     28 O         137.8170  142.2922  161.8054 O.2     1  UNL1       -0.1497
     29 C         137.7692  142.1476  163.9212 C.3     1  UNL1        0.5357
     30 F         138.2536  141.1750  162.8871 F       1  UNL1       -0.1493
     31 F         137.2848  143.1202  164.9553 F       1  UNL1       -0.1493
     32 F         137.6147  141.0254  164.9043 F       1  UNL1       -0.1493
@<TRIPOS>BOND
     1    20    21    3
     2    21    14    1
     3    14    15   ar
     4    15    16   ar
     5    16    17   ar
     6    17    13    1
     7    13    12    1
     8    12    11    1
     9    11    10    1
    10    10     1    1
    11     1     2    1
    12     2     3    1
    13     3     4    1
    14     4     5    1
    15     5    22    1
    16    22    23    1
    17    23    24    1
    18    24    26    1
    19    26    27    2
    20    26    28    2
    21    26    29    1
    22    29    30    1
    23    29    31    1
    24    29    32    1
    25     5     6    1
    26     6     7    1
    27     7     8    1
    28     7     9    1
    29    17    18   ar
    30    18    19   ar
    31    19    14   ar
    32     8     1    1
    33     9     3    1
    34    24    25    1
