@<TRIPOS>MOLECULE
*****
 26 27 0 0 0
SMALL
GASTEIGER

@<TRIPOS>ATOM
      1 N         139.4004  142.6163  164.7103 N.3     1  UNL1       -0.2740
      2 C         140.6533  143.4401  164.7495 C.3     1  UNL1        0.0721
      3 C         140.8049  144.6187  163.8342 C.3     1  UNL1        0.0191
      4 C         139.7036  144.9736  162.8796 C.3     1  UNL1        0.0224
      5 C         138.4507  144.1498  162.8404 C.3     1  UNL1        0.0191
      6 C         138.2991  142.9712  163.7557 C.3     1  UNL1        0.0721
      7 C         140.1468  141.2941  166.8185 C.3     1  UNL1        0.0173
      8 C         139.2488  141.4377  165.6256 C.3     1  UNL1        0.0575
      9 C         138.1993  140.4026  165.3480 C.3     1  UNL1        0.0160
     10 C         138.5789  138.9540  165.2619 C.3     1  UNL1        0.0013
     11 C         139.2320  139.2040  163.9349 C.3     1  UNL1        0.0000
     12 C         137.9258  138.7040  166.5889 C.3     1  UNL1        0.0000
     13 C         138.9584  137.5053  165.1758 C.3     1  UNL1        0.0000
     14 C         139.8552  146.1522  161.9643 C.3     1  UNL1        0.0897
     15 N         139.6469  145.9871  160.4881 N.am    1  UNL1       -0.3009
     16 C         140.7089  145.3412  159.6484 C.2     1  UNL1        0.2459
     17 O         141.9792  144.8605  160.2849 O.2     1  UNL1       -0.2701
     18 H         138.8131  146.3026  160.0703 H       1  UNL1        0.1497
     19 C         140.5005  145.1761  158.1721 C.ar    1  UNL1        0.0550
     20 C         140.0471  146.3415  157.3437 C.ar    1  UNL1        0.0160
     21 C         139.8387  146.1763  155.8674 C.ar    1  UNL1        0.0587
     22 CL        139.3854  147.3417  155.0389 Cl      1  UNL1       -0.0822
     23 C         140.0837  144.8458  155.2196 C.ar    1  UNL1        0.0228
     24 C         140.5371  143.6804  156.0481 C.ar    1  UNL1        0.0587
     25 CL        140.7822  142.3499  155.4003 Cl      1  UNL1       -0.0822
     26 C         140.7455  143.8456  157.5243 C.ar    1  UNL1        0.0160
@<TRIPOS>BOND
     1     7     8    1
     2     8     9    1
     3     9    10    1
     4    10    11    1
     5    10    12    1
     6    10    13    1
     7     8     1    1
     8     1     2    1
     9     2     3    1
    10     3     4    1
    11     4    14    1
    12    14    15    1
    13    15    16   am
    14    16    17    2
    15    16    19    1
    16    19    20   ar
    17    20    21   ar
    18    21    22    1
    19    21    23   ar
    20    23    24   ar
    21    24    25    1
    22    24    26   ar
    23     4     5    1
    24     5     6    1
    25     6     1    1
    26    26    19   ar
    27    15    18    1
@<TRIPOS>MOLECULE
*****
 26 27 0 0 0
SMALL
GASTEIGER

@<TRIPOS>ATOM
      1 N         139.4169  142.5198  164.6014 N.3     1  UNL1       -0.2740
      2 C         140.4988  143.5287  164.8493 C.3     1  UNL1        0.0721
      3 C         140.6078  144.7419  163.9740 C.3     1  UNL1        0.0191
      4 C         139.6349  144.9462  162.8508 C.3     1  UNL1        0.0224
      5 C         138.5531  143.9373  162.6028 C.3     1  UNL1        0.0191
      6 C         138.4440  142.7241  163.4781 C.3     1  UNL1        0.0721
      7 C         140.2909  141.0936  166.5894 C.3     1  UNL1        0.0173
      8 C         139.3078  141.3065  165.4767 C.3     1  UNL1        0.0575
      9 C         138.2157  140.3061  165.2393 C.3     1  UNL1        0.0160
     10 C         138.5322  138.8400  165.2221 C.3     1  UNL1        0.0013
     11 C         139.1182  138.9826  163.8487 C.3     1  UNL1        0.0000
     12 C         137.9463  138.6974  166.5956 C.3     1  UNL1        0.0000
     13 C         138.8488  137.3739  165.2050 C.3     1  UNL1        0.0000
     14 C         139.7440  146.1595  161.9755 C.3     1  UNL1        0.0897
     15 N         139.5999  146.0268  160.4883 N.am    1  UNL1       -0.3009
     16 C         140.6770  145.3574  159.6872 C.2     1  UNL1        0.2459
     17 O         141.8982  144.8207  160.3732 O.2     1  UNL1       -0.2701
     18 H         138.7984  146.3791  160.0381 H       1  UNL1        0.1497
     19 C         140.5329  145.2248  158.2000 C.ar    1  UNL1        0.0550
     20 C         140.9469  143.9553  157.5167 C.ar    1  UNL1        0.0160
     21 C         140.8028  143.8226  156.0294 C.ar    1  UNL1        0.0587
     22 CL        141.2168  142.5532  155.3461 Cl      1  UNL1       -0.0822
     23 C         140.2446  144.9595  155.2257 C.ar    1  UNL1        0.0228
     24 C         139.8306  146.2290  155.9091 C.ar    1  UNL1        0.0587
     25 CL        139.2724  147.3658  155.1054 Cl      1  UNL1       -0.0822
     26 C         139.9747  146.3616  157.3962 C.ar    1  UNL1        0.0160
@<TRIPOS>BOND
     1     7     8    1
     2     8     9    1
     3     9    10    1
     4    10    11    1
     5    10    12    1
     6    10    13    1
     7     8     1    1
     8     1     2    1
     9     2     3    1
    10     3     4    1
    11     4    14    1
    12    14    15    1
    13    15    16   am
    14    16    17    2
    15    16    19    1
    16    19    20   ar
    17    20    21   ar
    18    21    22    1
    19    21    23   ar
    20    23    24   ar
    21    24    25    1
    22    24    26   ar
    23     4     5    1
    24     5     6    1
    25     6     1    1
    26    26    19   ar
    27    15    18    1
@<TRIPOS>MOLECULE
*****
 26 27 0 0 0
SMALL
GASTEIGER

@<TRIPOS>ATOM
      1 N         139.5960  140.1990  167.2038 N.3     1  UNL1       -0.2740
      2 C         138.4719  139.2058  167.2084 C.3     1  UNL1        0.0721
      3 C         138.2216  138.3507  166.0017 C.3     1  UNL1        0.0191
      4 C         139.0954  138.4887  164.7904 C.3     1  UNL1        0.0224
      5 C         140.2195  139.4819  164.7858 C.3     1  UNL1        0.0191
      6 C         140.4697  140.3370  165.9925 C.3     1  UNL1        0.0721
      7 C         139.3484  140.6165  169.7561 C.3     1  UNL1        0.0173
      8 C         139.8462  141.0541  168.4105 C.3     1  UNL1        0.0575
      9 C         140.5943  142.3467  168.2717 C.3     1  UNL1        0.0160
     10 C         141.6013  142.7457  169.3094 C.3     1  UNL1        0.0013
     11 C         142.5619  141.7287  168.7682 C.3     1  UNL1        0.0000
     12 C         140.6407  143.7627  169.8505 C.3     1  UNL1        0.0000
     13 C         142.6083  143.1447  170.3471 C.3     1  UNL1        0.0000
     14 C         138.8451  137.6336  163.5837 C.3     1  UNL1        0.0897
     15 N         138.8785  138.2423  162.2132 N.am    1  UNL1       -0.3009
     16 C         140.1080  138.1111  161.3640 C.2     1  UNL1        0.2459
     17 O         141.3041  137.3711  161.8853 O.2     1  UNL1       -0.2701
     18 H         138.0935  138.7280  161.8710 H       1  UNL1        0.1497
     19 C         140.1414  138.7198  159.9934 C.ar    1  UNL1        0.0550
     20 C         141.3773  138.6043  159.1513 C.ar    1  UNL1        0.0160
     21 C         141.4106  139.2130  157.7807 C.ar    1  UNL1        0.0587
     22 CL        142.6466  139.0976  156.9387 Cl      1  UNL1       -0.0822
     23 C         140.2080  139.9372  157.2523 C.ar    1  UNL1        0.0228
     24 C         138.9720  140.0526  158.0944 C.ar    1  UNL1        0.0587
     25 CL        137.7694  140.7768  157.5659 Cl      1  UNL1       -0.0822
     26 C         138.9387  139.4439  159.4649 C.ar    1  UNL1        0.0160
@<TRIPOS>BOND
     1     7     8    1
     2     8     9    1
     3     9    10    1
     4    10    11    1
     5    10    12    1
     6    10    13    1
     7     8     1    1
     8     1     2    1
     9     2     3    1
    10     3     4    1
    11     4    14    1
    12    14    15    1
    13    15    16   am
    14    16    17    2
    15    16    19    1
    16    19    20   ar
    17    20    21   ar
    18    21    22    1
    19    21    23   ar
    20    23    24   ar
    21    24    25    1
    22    24    26   ar
    23     4     5    1
    24     5     6    1
    25     6     1    1
    26    26    19   ar
    27    15    18    1
@<TRIPOS>MOLECULE
*****
 26 27 0 0 0
SMALL
GASTEIGER

@<TRIPOS>ATOM
      1 N         139.9008  141.7244  165.3431 N.3     1  UNL1       -0.2740
      2 C         139.0970  142.9730  165.1314 C.3     1  UNL1        0.0721
      3 C         139.6894  144.1280  164.3797 C.3     1  UNL1        0.0191
      4 C         141.0857  144.0344  163.8398 C.3     1  UNL1        0.0224
      5 C         141.8895  142.7858  164.0515 C.3     1  UNL1        0.0191
      6 C         141.2971  141.6308  164.8032 C.3     1  UNL1        0.0721
      7 C         139.7452  140.2868  167.5016 C.3     1  UNL1        0.0173
      8 C         139.3083  140.5694  166.0948 C.3     1  UNL1        0.0575
      9 C         138.2789  139.6970  165.4396 C.3     1  UNL1        0.0160
     10 C         138.6568  138.8433  164.2656 C.3     1  UNL1        0.0013
     11 C         138.1107  139.8838  163.3332 C.3     1  UNL1        0.0000
     12 C         139.2028  137.8028  165.1979 C.3     1  UNL1        0.0000
     13 C         139.0346  137.9896  163.0915 C.3     1  UNL1        0.0000
     14 C         141.6782  145.1894  163.0881 C.3     1  UNL1        0.0897
     15 N         142.0603  145.0292  161.6465 N.am    1  UNL1       -0.3009
     16 C         141.0168  145.1519  160.5759 C.2     1  UNL1        0.2459
     17 O         139.5913  145.4348  160.9470 O.2     1  UNL1       -0.2701
     18 H         142.9959  144.8435  161.4030 H       1  UNL1        0.1497
     19 C         141.3990  144.9917  159.1342 C.ar    1  UNL1        0.0550
     20 C         142.3929  143.9420  158.7340 C.ar    1  UNL1        0.0160
     21 C         142.7751  143.7818  157.2923 C.ar    1  UNL1        0.0587
     22 CL        143.7690  142.7322  156.8920 Cl      1  UNL1       -0.0822
     23 C         142.1633  144.6714  156.2509 C.ar    1  UNL1        0.0228
     24 C         141.1693  145.7212  156.6513 C.ar    1  UNL1        0.0587
     25 CL        140.5576  146.6107  155.6099 Cl      1  UNL1       -0.0822
     26 C         140.7872  145.8813  158.0929 C.ar    1  UNL1        0.0160
@<TRIPOS>BOND
     1     7     8    1
     2     8     9    1
     3     9    10    1
     4    10    11    1
     5    10    12    1
     6    10    13    1
     7     8     1    1
     8     1     2    1
     9     2     3    1
    10     3     4    1
    11     4    14    1
    12    14    15    1
    13    15    16   am
    14    16    17    2
    15    16    19    1
    16    19    20   ar
    17    20    21   ar
    18    21    22    1
    19    21    23   ar
    20    23    24   ar
    21    24    25    1
    22    24    26   ar
    23     4     5    1
    24     5     6    1
    25     6     1    1
    26    26    19   ar
    27    15    18    1
@<TRIPOS>MOLECULE
*****
 26 27 0 0 0
SMALL
GASTEIGER

@<TRIPOS>ATOM
      1 N         138.8080  140.4505  164.4714 N.3     1  UNL1       -0.2740
      2 C         137.7163  141.1083  163.6805 C.3     1  UNL1        0.0721
      3 C         137.9379  142.4653  163.0809 C.3     1  UNL1        0.0191
      4 C         139.2510  143.1646  163.2723 C.3     1  UNL1        0.0224
      5 C         140.3427  142.5068  164.0631 C.3     1  UNL1        0.0191
      6 C         140.1212  141.1498  164.6627 C.3     1  UNL1        0.0721
      7 C         138.1005  138.9683  166.4844 C.3     1  UNL1        0.0173
      8 C         138.5865  139.0935  165.0709 C.3     1  UNL1        0.0575
      9 C         138.8510  137.8617  164.2569 C.3     1  UNL1        0.0160
     10 C         140.1153  137.7480  163.4578 C.3     1  UNL1        0.0013
     11 C         139.3428  138.0080  162.1986 C.3     1  UNL1        0.0000
     12 C         140.8878  137.4880  164.7170 C.3     1  UNL1        0.0000
     13 C         141.3796  137.6342  162.6587 C.3     1  UNL1        0.0000
     14 C         139.4725  144.5216  162.6727 C.3     1  UNL1        0.0897
     15 N         139.6003  144.6728  161.1859 N.am    1  UNL1       -0.3009
     16 C         140.9578  144.7808  160.5569 C.2     1  UNL1        0.2459
     17 O         142.1874  144.7375  161.4147 O.2     1  UNL1       -0.2701
     18 H         138.7932  144.7013  160.6228 H       1  UNL1        0.1497
     19 C         141.0855  144.9321  159.0700 C.ar    1  UNL1        0.0550
     20 C         140.2002  145.8946  158.3352 C.ar    1  UNL1        0.0160
     21 C         140.3280  146.0459  156.8483 C.ar    1  UNL1        0.0587
     22 CL        139.4427  147.0083  156.1135 Cl      1  UNL1       -0.0822
     23 C         141.3410  145.2346  156.0962 C.ar    1  UNL1        0.0228
     24 C         142.2263  144.2721  156.8310 C.ar    1  UNL1        0.0587
     25 CL        143.2393  143.4608  156.0789 Cl      1  UNL1       -0.0822
     26 C         142.0985  144.1208  158.3179 C.ar    1  UNL1        0.0160
@<TRIPOS>BOND
     1     7     8    1
     2     8     9    1
     3     9    10    1
     4    10    11    1
     5    10    12    1
     6    10    13    1
     7     8     1    1
     8     1     2    1
     9     2     3    1
    10     3     4    1
    11     4    14    1
    12    14    15    1
    13    15    16   am
    14    16    17    2
    15    16    19    1
    16    19    20   ar
    17    20    21   ar
    18    21    22    1
    19    21    23   ar
    20    23    24   ar
    21    24    25    1
    22    24    26   ar
    23     4     5    1
    24     5     6    1
    25     6     1    1
    26    26    19   ar
    27    15    18    1
@<TRIPOS>MOLECULE
*****
 26 27 0 0 0
SMALL
GASTEIGER

@<TRIPOS>ATOM
      1 N         140.5745  142.2226  166.0585 N.3     1  UNL1       -0.2740
      2 C         139.5129  143.1835  165.6118 C.3     1  UNL1        0.0721
      3 C         139.8518  144.2794  164.6453 C.3     1  UNL1        0.0191
      4 C         141.2523  144.4142  164.1253 C.3     1  UNL1        0.0224
      5 C         142.3139  143.4533  164.5720 C.3     1  UNL1        0.0191
      6 C         141.9749  142.3574  165.5386 C.3     1  UNL1        0.0721
      7 C         139.9306  139.7480  166.5190 C.3     1  UNL1        0.0173
      8 C         140.2355  141.1267  167.0251 C.3     1  UNL1        0.0575
      9 C         140.2016  141.4096  168.4977 C.3     1  UNL1        0.0160
     10 C         141.3237  142.1686  169.1418 C.3     1  UNL1        0.0013
     11 C         142.2119  140.9669  169.0104 C.3     1  UNL1        0.0000
     12 C         140.4356  143.3702  169.2731 C.3     1  UNL1        0.0000
     13 C         142.4459  142.9275  169.7858 C.3     1  UNL1        0.0000
     14 C         141.5912  145.5101  163.1587 C.3     1  UNL1        0.0897
     15 N         141.9627  145.1746  161.7448 N.am    1  UNL1       -0.3009
     16 C         140.9628  145.3608  160.6422 C.2     1  UNL1        0.2459
     17 O         139.5914  145.8824  160.9537 O.2     1  UNL1       -0.2701
     18 H         142.8628  144.8322  161.5403 H       1  UNL1        0.1497
     19 C         141.3344  145.0252  159.2282 C.ar    1  UNL1        0.0550
     20 C         142.3538  143.9599  158.9533 C.ar    1  UNL1        0.0160
     21 C         142.7254  143.6244  157.5392 C.ar    1  UNL1        0.0587
     22 CL        143.7449  142.5590  157.2643 Cl      1  UNL1       -0.0822
     23 C         142.0775  144.3543  156.4002 C.ar    1  UNL1        0.0228
     24 C         141.0580  145.4197  156.6752 C.ar    1  UNL1        0.0587
     25 CL        140.4100  146.1496  155.5361 Cl      1  UNL1       -0.0822
     26 C         140.6864  145.7551  158.0892 C.ar    1  UNL1        0.0160
@<TRIPOS>BOND
     1     7     8    1
     2     8     9    1
     3     9    10    1
     4    10    11    1
     5    10    12    1
     6    10    13    1
     7     8     1    1
     8     1     2    1
     9     2     3    1
    10     3     4    1
    11     4    14    1
    12    14    15    1
    13    15    16   am
    14    16    17    2
    15    16    19    1
    16    19    20   ar
    17    20    21   ar
    18    21    22    1
    19    21    23   ar
    20    23    24   ar
    21    24    25    1
    22    24    26   ar
    23     4     5    1
    24     5     6    1
    25     6     1    1
    26    26    19   ar
    27    15    18    1
@<TRIPOS>MOLECULE
*****
 26 27 0 0 0
SMALL
GASTEIGER

@<TRIPOS>ATOM
      1 N         139.0936  140.4460  164.6909 N.3     1  UNL1       -0.2740
      2 C         140.4309  141.0683  164.9635 C.3     1  UNL1        0.0721
      3 C         140.7639  142.4128  164.3878 C.3     1  UNL1        0.0191
      4 C         139.7596  143.1350  163.5394 C.3     1  UNL1        0.0224
      5 C         138.4224  142.5127  163.2668 C.3     1  UNL1        0.0191
      6 C         138.0893  141.1682  163.8425 C.3     1  UNL1        0.0721
      7 C         138.3425  138.9831  166.7023 C.3     1  UNL1        0.0173
      8 C         138.7606  139.1015  165.2666 C.3     1  UNL1        0.0575
      9 C         138.8456  137.8755  164.4067 C.3     1  UNL1        0.0160
     10 C         140.0220  137.6772  163.4974 C.3     1  UNL1        0.0013
     11 C         140.8918  137.3902  164.6854 C.3     1  UNL1        0.0000
     12 C         139.1523  137.9642  162.3095 C.3     1  UNL1        0.0000
     13 C         141.1985  137.4789  162.5882 C.3     1  UNL1        0.0000
     14 C         140.0927  144.4795  162.9637 C.3     1  UNL1        0.0897
     15 N         140.0713  144.6854  161.4781 N.am    1  UNL1       -0.3009
     16 C         141.3526  144.6584  160.6987 C.2     1  UNL1        0.2459
     17 O         142.6553  144.4255  161.4049 O.2     1  UNL1       -0.2701
     18 H         139.2163  144.8382  161.0146 H       1  UNL1        0.1497
     19 C         141.3312  144.8643  159.2130 C.ar    1  UNL1        0.0550
     20 C         142.2891  144.1118  158.3377 C.ar    1  UNL1        0.0160
     21 C         142.2677  144.3177  156.8520 C.ar    1  UNL1        0.0587
     22 CL        143.2256  143.5652  155.9766 Cl      1  UNL1       -0.0822
     23 C         141.2884  145.2761  156.2417 C.ar    1  UNL1        0.0228
     24 C         140.3305  146.0286  157.1171 C.ar    1  UNL1        0.0587
     25 CL        139.3512  146.9870  156.5068 Cl      1  UNL1       -0.0822
     26 C         140.3519  145.8227  158.6027 C.ar    1  UNL1        0.0160
@<TRIPOS>BOND
     1     7     8    1
     2     8     9    1
     3     9    10    1
     4    10    11    1
     5    10    12    1
     6    10    13    1
     7     8     1    1
     8     1     2    1
     9     2     3    1
    10     3     4    1
    11     4    14    1
    12    14    15    1
    13    15    16   am
    14    16    17    2
    15    16    19    1
    16    19    20   ar
    17    20    21   ar
    18    21    22    1
    19    21    23   ar
    20    23    24   ar
    21    24    25    1
    22    24    26   ar
    23     4     5    1
    24     5     6    1
    25     6     1    1
    26    26    19   ar
    27    15    18    1
@<TRIPOS>MOLECULE
*****
 26 27 0 0 0
SMALL
GASTEIGER

@<TRIPOS>ATOM
      1 N         141.4123  142.0557  166.1106 N.3     1  UNL1       -0.2740
      2 C         142.7194  142.4618  165.4970 C.3     1  UNL1        0.0721
      3 C         142.7670  143.5936  164.5138 C.3     1  UNL1        0.0191
      4 C         141.5075  144.3194  164.1441 C.3     1  UNL1        0.0224
      5 C         140.2003  143.9133  164.7577 C.3     1  UNL1        0.0191
      6 C         140.1527  142.7815  165.7409 C.3     1  UNL1        0.0721
      7 C         141.7472  139.5392  166.6625 C.3     1  UNL1        0.0173
      8 C         141.3647  140.9239  167.0938 C.3     1  UNL1        0.0575
      9 C         140.9347  141.1769  168.5084 C.3     1  UNL1        0.0160
     10 C         141.6447  142.2075  169.3352 C.3     1  UNL1        0.0013
     11 C         140.3892  143.0264  169.3926 C.3     1  UNL1        0.0000
     12 C         142.9002  141.3887  169.2778 C.3     1  UNL1        0.0000
     13 C         142.3547  143.2381  170.1621 C.3     1  UNL1        0.0000
     14 C         141.5550  145.4512  163.1609 C.3     1  UNL1        0.0897
     15 N         141.9144  145.1861  161.7290 N.am    1  UNL1       -0.3009
     16 C         140.8851  145.3628  160.6523 C.2     1  UNL1        0.2459
     17 O         139.4963  145.8046  161.0076 O.2     1  UNL1       -0.2701
     18 H         142.8259  144.8961  161.4958 H       1  UNL1        0.1497
     19 C         141.2445  145.0977  159.2203 C.ar    1  UNL1        0.0550
     20 C         140.5596  145.8562  158.1223 C.ar    1  UNL1        0.0160
     21 C         140.9191  145.5911  156.6903 C.ar    1  UNL1        0.0587
     22 CL        140.2342  146.3496  155.5923 Cl      1  UNL1       -0.0822
     23 C         141.9634  144.5674  156.3563 C.ar    1  UNL1        0.0228
     24 C         142.6483  143.8089  157.4544 C.ar    1  UNL1        0.0587
     25 CL        143.6926  142.7852  157.1204 Cl      1  UNL1       -0.0822
     26 C         142.2888  144.0740  158.8863 C.ar    1  UNL1        0.0160
@<TRIPOS>BOND
     1     7     8    1
     2     8     9    1
     3     9    10    1
     4    10    11    1
     5    10    12    1
     6    10    13    1
     7     8     1    1
     8     1     2    1
     9     2     3    1
    10     3     4    1
    11     4    14    1
    12    14    15    1
    13    15    16   am
    14    16    17    2
    15    16    19    1
    16    19    20   ar
    17    20    21   ar
    18    21    22    1
    19    21    23   ar
    20    23    24   ar
    21    24    25    1
    22    24    26   ar
    23     4     5    1
    24     5     6    1
    25     6     1    1
    26    26    19   ar
    27    15    18    1
@<TRIPOS>MOLECULE
*****
 26 27 0 0 0
SMALL
GASTEIGER

@<TRIPOS>ATOM
      1 N         140.5236  139.9106  166.7547 N.3     1  UNL1       -0.2740
      2 C         141.8755  139.3095  166.5079 C.3     1  UNL1        0.0721
      3 C         142.0921  138.4099  165.3273 C.3     1  UNL1        0.0191
      4 C         140.9568  138.1115  164.3935 C.3     1  UNL1        0.0224
      5 C         139.6049  138.7126  164.6403 C.3     1  UNL1        0.0191
      6 C         139.3883  139.6121  165.8209 C.3     1  UNL1        0.0721
      7 C         139.5315  140.3177  169.1212 C.3     1  UNL1        0.0173
      8 C         140.3069  140.8101  167.9353 C.3     1  UNL1        0.0575
      9 C         140.8657  142.2021  167.9301 C.3     1  UNL1        0.0160
     10 C         141.6284  142.7086  169.1183 C.3     1  UNL1        0.0013
     11 C         140.4517  143.5499  169.5151 C.3     1  UNL1        0.0000
     12 C         142.8052  141.8673  168.7215 C.3     1  UNL1        0.0000
     13 C         142.3912  143.2151  170.3065 C.3     1  UNL1        0.0000
     14 C         141.1735  137.2119  163.2128 C.3     1  UNL1        0.0897
     15 N         141.4009  137.8015  161.8525 N.am    1  UNL1       -0.3009
     16 C         142.7782  138.2305  161.4417 C.2     1  UNL1        0.2459
     17 O         143.9282  138.0700  162.3912 O.2     1  UNL1       -0.2701
     18 H         140.6461  137.9069  161.2292 H       1  UNL1        0.1497
     19 C         143.0056  138.8201  160.0812 C.ar    1  UNL1        0.0550
     20 C         142.6196  138.0474  158.8549 C.ar    1  UNL1        0.0160
     21 C         142.8469  138.6370  157.4944 C.ar    1  UNL1        0.0587
     22 CL        142.4609  137.8644  156.2681 Cl      1  UNL1       -0.0822
     23 C         143.4603  139.9993  157.3604 C.ar    1  UNL1        0.0228
     24 C         143.8463  140.7720  158.5868 C.ar    1  UNL1        0.0587
     25 CL        144.4597  142.1343  158.4528 Cl      1  UNL1       -0.0822
     26 C         143.6189  140.1824  159.9472 C.ar    1  UNL1        0.0160
@<TRIPOS>BOND
     1     7     8    1
     2     8     9    1
     3     9    10    1
     4    10    11    1
     5    10    12    1
     6    10    13    1
     7     8     1    1
     8     1     2    1
     9     2     3    1
    10     3     4    1
    11     4    14    1
    12    14    15    1
    13    15    16   am
    14    16    17    2
    15    16    19    1
    16    19    20   ar
    17    20    21   ar
    18    21    22    1
    19    21    23   ar
    20    23    24   ar
    21    24    25    1
    22    24    26   ar
    23     4     5    1
    24     5     6    1
    25     6     1    1
    26    26    19   ar
    27    15    18    1
