@<TRIPOS>MOLECULE
*****
 34 38 0 0 0
SMALL
GASTEIGER

@<TRIPOS>ATOM
      1 C         139.9552  139.5482  162.9119 C.ar    1  UNL1        0.0878
      2 C         138.8275  138.7337  163.4729 C.ar    1  UNL1        0.1543
      3 F         137.9764  137.9018  162.5598 F       1  UNL1       -0.2028
      4 C         138.5508  138.7510  164.9470 C.ar    1  UNL1        0.0356
      5 C         139.4018  139.5829  165.8602 C.ar    1  UNL1        0.0580
      6 C         139.1251  139.6002  167.3344 C.ar    1  UNL1        0.1996
      7 O         137.9973  138.7856  167.8954 O.2     1  UNL1       -0.2864
      8 C         139.9761  140.4320  168.2475 C.ar    1  UNL1        0.0701
      9 C         141.1038  141.2466  167.6864 C.ar    1  UNL1        0.0801
     10 N         141.3805  141.2293  166.2123 N.ar    1  UNL1       -0.3270
     11 C         140.5295  140.3974  165.2992 C.ar    1  UNL1        0.0750
     12 C         140.8062  140.3801  163.8250 C.ar    1  UNL1        0.0890
     13 CL        141.9339  141.1946  163.2640 Cl      1  UNL1       -0.0794
     14 C         140.9770  138.8290  159.2371 C.3     1  UNL1        0.0930
     15 C         140.3386  140.1796  159.1014 C.3     1  UNL1        0.0427
     16 C         139.8781  140.6134  160.4614 C.3     1  UNL1        0.0927
     17 N         140.2319  139.5309  161.4377 N.pl3   1  UNL1       -0.3033
     18 C         140.9111  138.4281  160.6810 C.3     1  UNL1        0.1104
     19 O         139.2366  137.8167  157.0131 O.2     1  UNL1       -0.2729
     20 C         140.7060  137.5150  157.0122 C.2     1  UNL1        0.2474
     21 N         141.5762  138.0212  158.1243 N.am    1  UNL1       -0.3026
     22 H         142.5406  137.8232  158.1237 H       1  UNL1        0.1495
     23 C         141.3051  136.7071  155.8994 C.3     1  UNL1        0.2118
     24 N         142.0260  135.4278  156.2053 N.ar    1  UNL1       -0.2400
     25 C         141.7765  134.0984  155.5570 C.ar    1  UNL1        0.0973
     26 C         142.7193  133.1023  156.1643 C.ar    1  UNL1        0.0427
     27 C         143.5515  133.8159  157.1879 C.ar    1  UNL1        0.1217
     28 N         143.1231  135.2532  157.2133 N.ar    1  UNL1       -0.1672
     29 C         139.6994  140.4493  169.7216 C.2     1  UNL1        0.0774
     30 O         138.8192  141.5135  170.3071 O.co2   1  UNL1       -0.5444
     31 O         140.3029  139.4024  170.6104 O.co2   1  UNL1       -0.5444
     32 C         142.5082  142.0438  165.6513 C.3     1  UNL1        0.0857
     33 C         143.0088  143.3114  165.0248 C.3     1  UNL1        0.0245
     34 C         143.9609  142.1870  165.3061 C.3     1  UNL1        0.0245
@<TRIPOS>UNITY_ATOM_ATTR
30 1
charge -1
@<TRIPOS>BOND
     1    19    20    2
     2    20    23    1
     3    23    24    1
     4    24    25   ar
     5    25    26   ar
     6    26    27   ar
     7    27    28   ar
     8    20    21   am
     9    21    14    1
    10    14    15    1
    11    15    16    1
    12    16    17    1
    13    17     1    1
    14     1     2   ar
    15     2     3    1
    16     2     4   ar
    17     4     5   ar
    18     5     6   ar
    19     6     7    2
    20     6     8   ar
    21     8    29    1
    22    29    30   ar
    23    29    31   ar
    24     8     9   ar
    25     9    10   ar
    26    10    32    1
    27    32    33    1
    28    33    34    1
    29    10    11   ar
    30    11    12   ar
    31    12    13    1
    32    17    18    1
    33    28    24   ar
    34    18    14    1
    35    12     1   ar
    36    11     5   ar
    37    34    32    1
    38    21    22    1
@<TRIPOS>MOLECULE
*****
 34 38 0 0 0
SMALL
GASTEIGER

@<TRIPOS>ATOM
      1 C         139.4795  139.7811  163.1867 C.ar    1  UNL1        0.0878
      2 C         138.9159  138.7451  164.1134 C.ar    1  UNL1        0.1543
      3 F         138.3015  137.4952  163.5564 F       1  UNL1       -0.2028
      4 C         138.9666  138.9590  165.5972 C.ar    1  UNL1        0.0356
      5 C         139.5810  140.2089  166.1542 C.ar    1  UNL1        0.0580
      6 C         139.6318  140.4227  167.6381 C.ar    1  UNL1        0.1996
      7 O         139.0681  139.3867  168.5648 O.2     1  UNL1       -0.2864
      8 C         140.2462  141.6726  168.1951 C.ar    1  UNL1        0.0701
      9 C         140.8099  142.7087  167.2683 C.ar    1  UNL1        0.0801
     10 N         140.7591  142.4948  165.7845 N.ar    1  UNL1       -0.3270
     11 C         140.1447  141.2449  165.2275 C.ar    1  UNL1        0.0750
     12 C         140.0939  141.0310  163.7437 C.ar    1  UNL1        0.0890
     13 CL        140.6576  142.0671  162.8168 Cl      1  UNL1       -0.0794
     14 C         138.7307  139.6585  159.3801 C.3     1  UNL1        0.0930
     15 C         139.9707  138.8181  159.4588 C.3     1  UNL1        0.0427
     16 C         140.4021  138.7617  160.8943 C.3     1  UNL1        0.0927
     17 N         139.4288  139.5673  161.7028 N.pl3   1  UNL1       -0.3033
     18 C         138.3958  140.1216  160.7670 C.3     1  UNL1        0.1104
     19 O         138.6063  142.4841  158.3798 O.2     1  UNL1       -0.2729
     20 C         137.8986  141.3923  157.6332 C.2     1  UNL1        0.2474
     21 N         137.9608  139.9795  158.1334 N.am    1  UNL1       -0.3026
     22 H         137.4964  139.2630  157.6435 H       1  UNL1        0.1495
     23 C         137.1287  141.7133  156.3865 C.3     1  UNL1        0.2118
     24 N         135.7533  141.1486  156.1881 N.ar    1  UNL1       -0.2400
     25 C         134.7792  141.5538  155.1218 C.ar    1  UNL1        0.0973
     26 C         133.5345  140.7351  155.2959 C.ar    1  UNL1        0.0427
     27 C         133.7392  139.8240  156.4696 C.ar    1  UNL1        0.1217
     28 N         135.1105  140.0795  157.0211 N.ar    1  UNL1       -0.1672
     29 C         140.2969  141.8865  169.6789 C.2     1  UNL1        0.0774
     30 O         141.6185  142.0601  170.3668 O.co2   1  UNL1       -0.5444
     31 O         139.0261  141.9268  170.4748 O.co2   1  UNL1       -0.5444
     32 C         141.3228  143.5308  164.8577 C.3     1  UNL1        0.0857
     33 C         142.4775  144.0850  164.0770 C.3     1  UNL1        0.0245
     34 C         141.1444  144.7711  164.0333 C.3     1  UNL1        0.0245
@<TRIPOS>UNITY_ATOM_ATTR
30 1
charge -1
@<TRIPOS>BOND
     1    19    20    2
     2    20    23    1
     3    23    24    1
     4    24    25   ar
     5    25    26   ar
     6    26    27   ar
     7    27    28   ar
     8    20    21   am
     9    21    14    1
    10    14    15    1
    11    15    16    1
    12    16    17    1
    13    17     1    1
    14     1     2   ar
    15     2     3    1
    16     2     4   ar
    17     4     5   ar
    18     5     6   ar
    19     6     7    2
    20     6     8   ar
    21     8    29    1
    22    29    30   ar
    23    29    31   ar
    24     8     9   ar
    25     9    10   ar
    26    10    32    1
    27    32    33    1
    28    33    34    1
    29    10    11   ar
    30    11    12   ar
    31    12    13    1
    32    17    18    1
    33    28    24   ar
    34    18    14    1
    35    12     1   ar
    36    11     5   ar
    37    34    32    1
    38    21    22    1
@<TRIPOS>MOLECULE
*****
 34 38 0 0 0
SMALL
GASTEIGER

@<TRIPOS>ATOM
      1 C         142.1124  142.4119  163.7962 C.ar    1  UNL1        0.0878
      2 C         143.2100  143.1806  164.4703 C.ar    1  UNL1        0.1543
      3 F         144.0448  144.1446  163.6805 F       1  UNL1       -0.2028
      4 C         143.4727  142.9853  165.9341 C.ar    1  UNL1        0.0356
      5 C         142.6378  142.0213  166.7238 C.ar    1  UNL1        0.0580
      6 C         142.9006  141.8260  168.1877 C.ar    1  UNL1        0.1996
      7 O         143.9982  142.5947  168.8618 O.2     1  UNL1       -0.2864
      8 C         142.0658  140.8619  168.9774 C.ar    1  UNL1        0.0701
      9 C         140.9681  140.0932  168.3033 C.ar    1  UNL1        0.0801
     10 N         140.7054  140.2886  166.8395 N.ar    1  UNL1       -0.3270
     11 C         141.5403  141.2526  166.0497 C.ar    1  UNL1        0.0750
     12 C         141.2776  141.4479  164.5859 C.ar    1  UNL1        0.0890
     13 CL        140.1799  140.6792  163.9118 Cl      1  UNL1       -0.0794
     14 C         140.9890  143.4817  160.2382 C.3     1  UNL1        0.0930
     15 C         141.9015  142.3340  159.9213 C.3     1  UNL1        0.0427
     16 C         142.4333  141.7936  161.2155 C.3     1  UNL1        0.0927
     17 N         141.8496  142.6072  162.3323 N.pl3   1  UNL1       -0.3033
     18 C         140.9571  143.6505  161.7283 C.3     1  UNL1        0.1104
     19 O         142.4639  145.4459  158.5157 O.2     1  UNL1       -0.2729
     20 C         140.9776  145.2964  158.3789 C.2     1  UNL1        0.2474
     21 N         140.2402  144.3143  159.2402 N.am    1  UNL1       -0.3026
     22 H         139.2647  144.2162  159.1504 H       1  UNL1        0.1495
     23 C         140.2287  146.1290  157.3810 C.3     1  UNL1        0.2118
     24 N         139.2160  145.4881  156.4789 N.ar    1  UNL1       -0.2400
     25 C         138.4513  146.1726  155.3850 C.ar    1  UNL1        0.0973
     26 C         137.5529  145.1577  154.7425 C.ar    1  UNL1        0.0427
     27 C         137.7624  143.8460  155.4392 C.ar    1  UNL1        0.1217
     28 N         138.7903  144.0502  156.5123 N.ar    1  UNL1       -0.1672
     29 C         142.3285  140.6666  170.4412 C.2     1  UNL1        0.0774
     30 O         141.4948  141.3912  171.4561 O.co2   1  UNL1       -0.5444
     31 O         143.4249  139.7466  170.8903 O.co2   1  UNL1       -0.5444
     32 C         139.6079  139.5199  166.1654 C.3     1  UNL1        0.0857
     33 C         138.1916  139.4340  165.6788 C.3     1  UNL1        0.0245
     34 C         139.1230  138.2744  165.4845 C.3     1  UNL1        0.0245
@<TRIPOS>UNITY_ATOM_ATTR
30 1
charge -1
@<TRIPOS>BOND
     1    19    20    2
     2    20    23    1
     3    23    24    1
     4    24    25   ar
     5    25    26   ar
     6    26    27   ar
     7    27    28   ar
     8    20    21   am
     9    21    14    1
    10    14    15    1
    11    15    16    1
    12    16    17    1
    13    17     1    1
    14     1     2   ar
    15     2     3    1
    16     2     4   ar
    17     4     5   ar
    18     5     6   ar
    19     6     7    2
    20     6     8   ar
    21     8    29    1
    22    29    30   ar
    23    29    31   ar
    24     8     9   ar
    25     9    10   ar
    26    10    32    1
    27    32    33    1
    28    33    34    1
    29    10    11   ar
    30    11    12   ar
    31    12    13    1
    32    17    18    1
    33    28    24   ar
    34    18    14    1
    35    12     1   ar
    36    11     5   ar
    37    34    32    1
    38    21    22    1
@<TRIPOS>MOLECULE
*****
 34 38 0 0 0
SMALL
GASTEIGER

@<TRIPOS>ATOM
      1 C         139.8619  139.5573  162.8691 C.ar    1  UNL1        0.0878
      2 C         138.7376  138.7346  163.4249 C.ar    1  UNL1        0.1543
      3 F         137.8779  137.9201  162.5042 F       1  UNL1       -0.2028
      4 C         138.4729  138.7263  164.9013 C.ar    1  UNL1        0.0356
      5 C         139.3326  139.5408  165.8219 C.ar    1  UNL1        0.0580
      6 C         139.0680  139.5325  167.2984 C.ar    1  UNL1        0.1996
      7 O         137.9436  138.7098  167.8542 O.2     1  UNL1       -0.2864
      8 C         139.9276  140.3470  168.2190 C.ar    1  UNL1        0.0701
      9 C         141.0520  141.1698  167.6631 C.ar    1  UNL1        0.0801
     10 N         141.3166  141.1781  166.1867 N.ar    1  UNL1       -0.3270
     11 C         140.4569  140.3636  165.2661 C.ar    1  UNL1        0.0750
     12 C         140.7216  140.3718  163.7897 C.ar    1  UNL1        0.0890
     13 CL        141.8459  141.1946  163.2338 Cl      1  UNL1       -0.0794
     14 C         140.7828  138.8719  159.1612 C.3     1  UNL1        0.0930
     15 C         140.2850  140.2846  159.0799 C.3     1  UNL1        0.0427
     16 C         139.8794  140.7133  160.4589 C.3     1  UNL1        0.0927
     17 N         140.1266  139.5656  161.3926 N.pl3   1  UNL1       -0.3033
     18 C         140.6848  138.4276  160.5905 C.3     1  UNL1        0.1104
     19 O         143.6216  139.1714  158.2384 O.2     1  UNL1       -0.2729
     20 C         142.7089  138.1980  157.5531 C.2     1  UNL1        0.2474
     21 N         141.2895  138.0483  158.0146 N.am    1  UNL1       -0.3026
     22 H         140.6904  137.4094  157.5648 H       1  UNL1        0.1495
     23 C         143.2156  137.3743  156.4065 C.3     1  UNL1        0.2118
     24 N         142.8697  135.9173  156.3191 N.ar    1  UNL1       -0.2400
     25 C         141.8039  135.3146  155.4527 C.ar    1  UNL1        0.0973
     26 C         141.8045  133.8321  155.6809 C.ar    1  UNL1        0.0427
     27 C         142.8706  133.5186  156.6883 C.ar    1  UNL1        0.1217
     28 N         143.5290  134.8073  157.0827 N.ar    1  UNL1       -0.1672
     29 C         139.6630  140.3388  169.6954 C.2     1  UNL1        0.0774
     30 O         140.4699  139.4522  170.5971 O.co2   1  UNL1       -0.5444
     31 O         138.5915  141.2171  170.2703 O.co2   1  UNL1       -0.5444
     32 C         142.4409  142.0008  165.6309 C.3     1  UNL1        0.0857
     33 C         142.9252  143.2432  164.9439 C.3     1  UNL1        0.0245
     34 C         143.9040  142.1835  165.3552 C.3     1  UNL1        0.0245
@<TRIPOS>UNITY_ATOM_ATTR
30 1
charge -1
@<TRIPOS>BOND
     1    19    20    2
     2    20    23    1
     3    23    24    1
     4    24    25   ar
     5    25    26   ar
     6    26    27   ar
     7    27    28   ar
     8    20    21   am
     9    21    14    1
    10    14    15    1
    11    15    16    1
    12    16    17    1
    13    17     1    1
    14     1     2   ar
    15     2     3    1
    16     2     4   ar
    17     4     5   ar
    18     5     6   ar
    19     6     7    2
    20     6     8   ar
    21     8    29    1
    22    29    30   ar
    23    29    31   ar
    24     8     9   ar
    25     9    10   ar
    26    10    32    1
    27    32    33    1
    28    33    34    1
    29    10    11   ar
    30    11    12   ar
    31    12    13    1
    32    17    18    1
    33    28    24   ar
    34    18    14    1
    35    12     1   ar
    36    11     5   ar
    37    34    32    1
    38    21    22    1
@<TRIPOS>MOLECULE
*****
 34 38 0 0 0
SMALL
GASTEIGER

@<TRIPOS>ATOM
      1 C         142.8423  141.0424  164.6622 C.ar    1  UNL1        0.0878
      2 C         143.7801  141.9201  165.4368 C.ar    1  UNL1        0.1543
      3 F         145.0606  142.3867  164.8102 F       1  UNL1       -0.2028
      4 C         143.4375  142.3313  166.8380 C.ar    1  UNL1        0.0356
      5 C         142.1570  141.8647  167.4647 C.ar    1  UNL1        0.0580
      6 C         141.8144  142.2759  168.8660 C.ar    1  UNL1        0.1996
      7 O         142.7522  143.1536  169.6406 O.2     1  UNL1       -0.2864
      8 C         140.5339  141.8093  169.4926 C.ar    1  UNL1        0.0701
      9 C         139.5960  140.9316  168.7180 C.ar    1  UNL1        0.0801
     10 N         139.9387  140.5204  167.3167 N.ar    1  UNL1       -0.3270
     11 C         141.2192  140.9870  166.6901 C.ar    1  UNL1        0.0750
     12 C         141.5618  140.5759  165.2889 C.ar    1  UNL1        0.0890
     13 CL        140.6240  139.6981  164.5142 Cl      1  UNL1       -0.0794
     14 C         143.4325  140.6449  160.8465 C.3     1  UNL1        0.0930
     15 C         143.9917  139.3522  161.3626 C.3     1  UNL1        0.0427
     16 C         143.8386  139.3438  162.8547 C.3     1  UNL1        0.0927
     17 N         143.1849  140.6312  163.2609 N.pl3   1  UNL1       -0.3033
     18 C         142.9339  141.4354  162.0198 C.3     1  UNL1        0.1104
     19 O         145.2947  142.7741  159.8471 O.2     1  UNL1       -0.2729
     20 C         144.3121  142.1367  158.9098 C.2     1  UNL1        0.2474
     21 N         143.3811  141.0721  159.4096 N.am    1  UNL1       -0.3026
     22 H         142.7362  140.6538  158.7945 H       1  UNL1        0.1495
     23 C         144.2606  142.5639  157.4729 C.3     1  UNL1        0.2118
     24 N         145.3813  142.2043  156.5429 N.ar    1  UNL1       -0.2400
     25 C         145.2446  141.4820  155.2354 C.ar    1  UNL1        0.0973
     26 C         146.6142  141.3352  154.6416 C.ar    1  UNL1        0.0427
     27 C         147.5973  141.9668  155.5820 C.ar    1  UNL1        0.1217
     28 N         146.8354  142.5040  156.7571 N.ar    1  UNL1       -0.1672
     29 C         140.1912  142.2205  170.8939 C.2     1  UNL1        0.0774
     30 O         140.7365  141.4464  172.0572 O.co2   1  UNL1       -0.5444
     31 O         139.3032  143.4058  171.1318 O.co2   1  UNL1       -0.5444
     32 C         139.0008  139.6427  166.5421 C.3     1  UNL1        0.0857
     33 C         137.9720  139.4738  165.4638 C.3     1  UNL1        0.0245
     34 C         138.4053  138.2915  166.2788 C.3     1  UNL1        0.0245
@<TRIPOS>UNITY_ATOM_ATTR
30 1
charge -1
@<TRIPOS>BOND
     1    19    20    2
     2    20    23    1
     3    23    24    1
     4    24    25   ar
     5    25    26   ar
     6    26    27   ar
     7    27    28   ar
     8    20    21   am
     9    21    14    1
    10    14    15    1
    11    15    16    1
    12    16    17    1
    13    17     1    1
    14     1     2   ar
    15     2     3    1
    16     2     4   ar
    17     4     5   ar
    18     5     6   ar
    19     6     7    2
    20     6     8   ar
    21     8    29    1
    22    29    30   ar
    23    29    31   ar
    24     8     9   ar
    25     9    10   ar
    26    10    32    1
    27    32    33    1
    28    33    34    1
    29    10    11   ar
    30    11    12   ar
    31    12    13    1
    32    17    18    1
    33    28    24   ar
    34    18    14    1
    35    12     1   ar
    36    11     5   ar
    37    34    32    1
    38    21    22    1
@<TRIPOS>MOLECULE
*****
 34 38 0 0 0
SMALL
GASTEIGER

@<TRIPOS>ATOM
      1 C         142.7522  139.6051  163.5269 C.ar    1  UNL1        0.0878
      2 C         143.8186  139.1679  164.4869 C.ar    1  UNL1        0.1543
      3 F         145.1411  138.6847  163.9697 F       1  UNL1       -0.2028
      4 C         143.5624  139.2138  165.9641 C.ar    1  UNL1        0.0356
      5 C         142.2399  139.6970  166.4814 C.ar    1  UNL1        0.0580
      6 C         141.9838  139.7429  167.9587 C.ar    1  UNL1        0.1996
      7 O         143.0501  139.3057  168.9187 O.2     1  UNL1       -0.2864
      8 C         140.6613  140.2261  168.4759 C.ar    1  UNL1        0.0701
      9 C         139.5949  140.6634  167.5158 C.ar    1  UNL1        0.0801
     10 N         139.8511  140.6174  166.0386 N.ar    1  UNL1       -0.3270
     11 C         141.1736  140.1342  165.5214 C.ar    1  UNL1        0.0750
     12 C         141.4297  140.0883  164.0441 C.ar    1  UNL1        0.0890
     13 CL        140.3633  140.5256  163.0840 Cl      1  UNL1       -0.0794
     14 C         143.1400  138.7862  159.7527 C.3     1  UNL1        0.0930
     15 C         143.6648  140.1907  159.8000 C.3     1  UNL1        0.0427
     16 C         143.5834  140.6683  161.2196 C.3     1  UNL1        0.0927
     17 N         143.0083  139.5592  162.0496 N.pl3   1  UNL1       -0.3033
     18 C         142.7343  138.3960  161.1430 C.3     1  UNL1        0.1104
     19 O         140.6686  138.8758  158.0544 O.2     1  UNL1       -0.2729
     20 C         141.8030  137.9683  157.6806 C.2     1  UNL1        0.2474
     21 N         143.0387  137.9236  158.5298 N.am    1  UNL1       -0.3026
     22 H         143.7833  137.3280  158.2845 H       1  UNL1        0.1495
     23 C         141.7018  137.1057  156.4577 C.3     1  UNL1        0.2118
     24 N         142.1781  135.6840  156.5011 N.ar    1  UNL1       -0.2400
     25 C         141.6942  134.5649  155.6275 C.ar    1  UNL1        0.0973
     26 C         142.4391  133.3211  156.0123 C.ar    1  UNL1        0.0427
     27 C         143.3833  133.6714  157.1239 C.ar    1  UNL1        0.1217
     28 N         143.2220  135.1318  157.4260 N.ar    1  UNL1       -0.1672
     29 C         140.4051  140.2721  169.9531 C.2     1  UNL1        0.0774
     30 O         141.4067  140.9117  170.8685 O.co2   1  UNL1       -0.5444
     31 O         139.1474  139.6784  170.5151 O.co2   1  UNL1       -0.5444
     32 C         138.7847  141.0547  165.0786 C.3     1  UNL1        0.0857
     33 C         137.7400  140.7183  164.0561 C.3     1  UNL1        0.0245
     34 C         137.9823  142.1484  164.4383 C.3     1  UNL1        0.0245
@<TRIPOS>UNITY_ATOM_ATTR
30 1
charge -1
@<TRIPOS>BOND
     1    19    20    2
     2    20    23    1
     3    23    24    1
     4    24    25   ar
     5    25    26   ar
     6    26    27   ar
     7    27    28   ar
     8    20    21   am
     9    21    14    1
    10    14    15    1
    11    15    16    1
    12    16    17    1
    13    17     1    1
    14     1     2   ar
    15     2     3    1
    16     2     4   ar
    17     4     5   ar
    18     5     6   ar
    19     6     7    2
    20     6     8   ar
    21     8    29    1
    22    29    30   ar
    23    29    31   ar
    24     8     9   ar
    25     9    10   ar
    26    10    32    1
    27    32    33    1
    28    33    34    1
    29    10    11   ar
    30    11    12   ar
    31    12    13    1
    32    17    18    1
    33    28    24   ar
    34    18    14    1
    35    12     1   ar
    36    11     5   ar
    37    34    32    1
    38    21    22    1
@<TRIPOS>MOLECULE
*****
 34 38 0 0 0
SMALL
GASTEIGER

@<TRIPOS>ATOM
      1 C         140.9972  139.5553  164.4094 C.ar    1  UNL1        0.0878
      2 C         141.7963  138.6549  165.3041 C.ar    1  UNL1        0.1543
      3 F         142.2482  137.3134  164.8078 F       1  UNL1       -0.2028
      4 C         142.1436  139.0959  166.6951 C.ar    1  UNL1        0.0356
      5 C         141.6917  140.4373  167.1914 C.ar    1  UNL1        0.0580
      6 C         142.0390  140.8783  168.5824 C.ar    1  UNL1        0.1996
      7 O         142.8382  139.9779  169.4771 O.2     1  UNL1       -0.2864
      8 C         141.5871  142.2198  169.0787 C.ar    1  UNL1        0.0701
      9 C         140.7880  143.1203  168.1839 C.ar    1  UNL1        0.0801
     10 N         140.4407  142.6792  166.7929 N.ar    1  UNL1       -0.3270
     11 C         140.8926  141.3378  166.2967 C.ar    1  UNL1        0.0750
     12 C         140.5453  140.8968  164.9057 C.ar    1  UNL1        0.0890
     13 CL        139.7461  141.7972  164.0109 Cl      1  UNL1       -0.0794
     14 C         140.7393  138.7619  160.6187 C.3     1  UNL1        0.0930
     15 C         139.4918  138.1096  161.1369 C.3     1  UNL1        0.0427
     16 C         139.4366  138.3275  162.6199 C.3     1  UNL1        0.0927
     17 N         140.6499  139.1143  163.0183 N.pl3   1  UNL1       -0.3033
     18 C         141.4550  139.3828  161.7815 C.3     1  UNL1        0.1104
     19 O         143.1486  137.1845  159.7779 O.2     1  UNL1       -0.2729
     20 C         142.3962  137.9998  158.7683 C.2     1  UNL1        0.2474
     21 N         141.1915  138.7885  159.1887 N.am    1  UNL1       -0.3026
     22 H         140.6977  139.3236  158.5261 H       1  UNL1        0.1495
     23 C         142.8485  138.0264  157.3384 C.3     1  UNL1        0.2118
     24 N         142.7214  136.7969  156.4885 N.ar    1  UNL1       -0.2400
     25 C         143.8315  136.1287  155.7330 C.ar    1  UNL1        0.0973
     26 C         143.2580  134.9386  155.0225 C.ar    1  UNL1        0.0427
     27 C         141.7934  134.8713  155.3390 C.ar    1  UNL1        0.1217
     28 N         141.4617  136.0198  156.2450 N.ar    1  UNL1       -0.1672
     29 C         141.9344  142.6608  170.4697 C.2     1  UNL1        0.0774
     30 O         141.1547  142.1370  171.6392 O.co2   1  UNL1       -0.5444
     31 O         143.0614  143.6257  170.6912 O.co2   1  UNL1       -0.5444
     32 C         139.6416  143.5797  165.8982 C.3     1  UNL1        0.0857
     33 C         139.5841  144.6498  164.8487 C.3     1  UNL1        0.0245
     34 C         138.3149  144.0692  165.3981 C.3     1  UNL1        0.0245
@<TRIPOS>UNITY_ATOM_ATTR
30 1
charge -1
@<TRIPOS>BOND
     1    19    20    2
     2    20    23    1
     3    23    24    1
     4    24    25   ar
     5    25    26   ar
     6    26    27   ar
     7    27    28   ar
     8    20    21   am
     9    21    14    1
    10    14    15    1
    11    15    16    1
    12    16    17    1
    13    17     1    1
    14     1     2   ar
    15     2     3    1
    16     2     4   ar
    17     4     5   ar
    18     5     6   ar
    19     6     7    2
    20     6     8   ar
    21     8    29    1
    22    29    30   ar
    23    29    31   ar
    24     8     9   ar
    25     9    10   ar
    26    10    32    1
    27    32    33    1
    28    33    34    1
    29    10    11   ar
    30    11    12   ar
    31    12    13    1
    32    17    18    1
    33    28    24   ar
    34    18    14    1
    35    12     1   ar
    36    11     5   ar
    37    34    32    1
    38    21    22    1
@<TRIPOS>MOLECULE
*****
 34 38 0 0 0
SMALL
GASTEIGER

@<TRIPOS>ATOM
      1 C         139.6281  142.4897  164.2041 C.ar    1  UNL1        0.0878
      2 C         138.9739  143.5596  165.0270 C.ar    1  UNL1        0.1543
      3 F         137.9444  144.4579  164.4079 F       1  UNL1       -0.2028
      4 C         139.3490  143.7312  166.4692 C.ar    1  UNL1        0.0356
      5 C         140.3785  142.8329  167.0884 C.ar    1  UNL1        0.0580
      6 C         140.7536  143.0046  168.5305 C.ar    1  UNL1        0.1996
      7 O         140.0994  144.0745  169.3535 O.2     1  UNL1       -0.2864
      8 C         141.7830  142.1063  169.1497 C.ar    1  UNL1        0.0701
      9 C         142.4373  141.0364  168.3267 C.ar    1  UNL1        0.0801
     10 N         142.0621  140.8647  166.8846 N.ar    1  UNL1       -0.3270
     11 C         141.0327  141.7630  166.2654 C.ar    1  UNL1        0.0750
     12 C         140.6575  141.5914  164.8233 C.ar    1  UNL1        0.0890
     13 CL        141.3117  140.5214  164.0003 Cl      1  UNL1       -0.0794
     14 C         139.0870  142.6551  160.3641 C.3     1  UNL1        0.0930
     15 C         138.2642  141.4528  160.7213 C.3     1  UNL1        0.0427
     16 C         138.3667  141.2445  162.2032 C.3     1  UNL1        0.0927
     17 N         139.2529  142.3180  162.7619 N.pl3   1  UNL1       -0.3033
     18 C         139.6981  143.1898  161.6253 C.3     1  UNL1        0.1104
     19 O         141.6949  142.2995  158.9244 O.2     1  UNL1       -0.2729
     20 C         140.5711  143.0451  158.2676 C.2     1  UNL1        0.2474
     21 N         139.2672  143.2229  158.9875 N.am    1  UNL1       -0.3026
     22 H         138.5296  143.7122  158.5564 H       1  UNL1        0.1495
     23 C         140.7512  143.6129  156.8909 C.3     1  UNL1        0.2118
     24 N         140.0184  144.8595  156.4920 N.ar    1  UNL1       -0.2400
     25 C         140.1529  146.2064  157.1383 C.ar    1  UNL1        0.0973
     26 C         139.2400  147.1572  156.4224 C.ar    1  UNL1        0.0427
     27 C         138.5414  146.3980  155.3337 C.ar    1  UNL1        0.1217
     28 N         139.0224  144.9779  155.3767 N.ar    1  UNL1       -0.1672
     29 C         142.1582  142.2779  170.5919 C.2     1  UNL1        0.0774
     30 O         142.9414  143.4817  171.0250 O.co2   1  UNL1       -0.5444
     31 O         141.7503  141.2457  171.6010 O.co2   1  UNL1       -0.5444
     32 C         142.7163  139.7948  166.0617 C.3     1  UNL1        0.0857
     33 C         142.7556  138.3802  165.5643 C.3     1  UNL1        0.0245
     34 C         143.8102  139.3562  165.1338 C.3     1  UNL1        0.0245
@<TRIPOS>UNITY_ATOM_ATTR
30 1
charge -1
@<TRIPOS>BOND
     1    19    20    2
     2    20    23    1
     3    23    24    1
     4    24    25   ar
     5    25    26   ar
     6    26    27   ar
     7    27    28   ar
     8    20    21   am
     9    21    14    1
    10    14    15    1
    11    15    16    1
    12    16    17    1
    13    17     1    1
    14     1     2   ar
    15     2     3    1
    16     2     4   ar
    17     4     5   ar
    18     5     6   ar
    19     6     7    2
    20     6     8   ar
    21     8    29    1
    22    29    30   ar
    23    29    31   ar
    24     8     9   ar
    25     9    10   ar
    26    10    32    1
    27    32    33    1
    28    33    34    1
    29    10    11   ar
    30    11    12   ar
    31    12    13    1
    32    17    18    1
    33    28    24   ar
    34    18    14    1
    35    12     1   ar
    36    11     5   ar
    37    34    32    1
    38    21    22    1
@<TRIPOS>MOLECULE
*****
 34 38 0 0 0
SMALL
GASTEIGER

@<TRIPOS>ATOM
      1 C         140.0601  139.1984  163.2002 C.ar    1  UNL1        0.0878
      2 C         138.9579  138.3373  163.7420 C.ar    1  UNL1        0.1543
      3 F         138.2485  137.3713  162.8399 F       1  UNL1       -0.2028
      4 C         138.5650  138.4422  165.1858 C.ar    1  UNL1        0.0356
      5 C         139.2743  139.4082  166.0878 C.ar    1  UNL1        0.0580
      6 C         138.8814  139.5130  167.5317 C.ar    1  UNL1        0.1996
      7 O         137.7792  138.6519  168.0735 O.2     1  UNL1       -0.2864
      8 C         139.5908  140.4790  168.4338 C.ar    1  UNL1        0.0701
      9 C         140.6931  141.3401  167.8919 C.ar    1  UNL1        0.0801
     10 N         141.0859  141.2353  166.4481 N.ar    1  UNL1       -0.3270
     11 C         140.3766  140.2693  165.5461 C.ar    1  UNL1        0.0750
     12 C         140.7695  140.1644  164.1023 C.ar    1  UNL1        0.0890
     13 CL        141.8717  141.0255  163.5605 Cl      1  UNL1       -0.0794
     14 C         140.5411  139.4462  159.3567 C.3     1  UNL1        0.0930
     15 C         141.5741  138.4183  159.7124 C.3     1  UNL1        0.0427
     16 C         141.5197  138.2005  161.1955 C.3     1  UNL1        0.0927
     17 N         140.4530  139.0935  161.7564 N.pl3   1  UNL1       -0.3033
     18 C         139.8482  139.8634  160.6199 C.3     1  UNL1        0.1104
     19 O         137.7062  139.9206  158.4974 O.2     1  UNL1       -0.2729
     20 C         138.8343  140.2027  157.5498 C.2     1  UNL1        0.2474
     21 N         140.2518  139.9654  157.9795 N.am    1  UNL1       -0.3026
     22 H         140.9922  140.1506  157.3576 H       1  UNL1        0.1495
     23 C         138.5450  140.7220  156.1727 C.3     1  UNL1        0.2118
     24 N         137.8614  139.8427  155.1678 N.ar    1  UNL1       -0.2400
     25 C         137.2644  140.2899  153.8665 C.ar    1  UNL1        0.0973
     26 C         136.6889  139.0855  153.1824 C.ar    1  UNL1        0.0427
     27 C         136.9301  137.8939  154.0609 C.ar    1  UNL1        0.1217
     28 N         137.6548  138.3619  155.2880 N.ar    1  UNL1       -0.1672
     29 C         139.1979  140.5839  169.8776 C.2     1  UNL1        0.0774
     30 O         138.0182  139.8132  170.3917 O.co2   1  UNL1       -0.5444
     31 O         139.9847  141.4595  170.8073 O.co2   1  UNL1       -0.5444
     32 C         142.1882  142.0963  165.9064 C.3     1  UNL1        0.0857
     33 C         142.6342  143.3003  165.1307 C.3     1  UNL1        0.0245
     34 C         143.6513  142.3840  165.7437 C.3     1  UNL1        0.0245
@<TRIPOS>UNITY_ATOM_ATTR
30 1
charge -1
@<TRIPOS>BOND
     1    19    20    2
     2    20    23    1
     3    23    24    1
     4    24    25   ar
     5    25    26   ar
     6    26    27   ar
     7    27    28   ar
     8    20    21   am
     9    21    14    1
    10    14    15    1
    11    15    16    1
    12    16    17    1
    13    17     1    1
    14     1     2   ar
    15     2     3    1
    16     2     4   ar
    17     4     5   ar
    18     5     6   ar
    19     6     7    2
    20     6     8   ar
    21     8    29    1
    22    29    30   ar
    23    29    31   ar
    24     8     9   ar
    25     9    10   ar
    26    10    32    1
    27    32    33    1
    28    33    34    1
    29    10    11   ar
    30    11    12   ar
    31    12    13    1
    32    17    18    1
    33    28    24   ar
    34    18    14    1
    35    12     1   ar
    36    11     5   ar
    37    34    32    1
    38    21    22    1
