@<TRIPOS>MOLECULE
*****
 44 48 0 0 0
SMALL
GASTEIGER

@<TRIPOS>ATOM
      1 C         140.2753  140.8690  162.5251 C.3     1  UNL1        0.0764
      2 C         139.8301  140.5130  163.9126 C.ar    1  UNL1        0.0181
      3 C         140.5242  141.1120  165.0998 C.ar    1  UNL1       -0.0009
      4 C         140.0790  140.7561  166.4873 C.ar    1  UNL1        0.0006
      5 C         140.7730  141.3551  167.6745 C.ar    1  UNL1        0.0103
      6 C         140.3278  140.9991  169.0620 C.ar    1  UNL1        0.0684
      7 C         139.1886  140.0442  169.2622 C.ar    1  UNL1        0.0103
      8 C         138.4945  139.4451  168.0751 C.ar    1  UNL1        0.0008
      9 C         138.9397  139.8011  166.6876 C.ar    1  UNL1        0.0030
     10 C         138.2457  139.2021  165.5004 C.ar    1  UNL1        0.0366
     11 C         138.6909  139.5580  164.1129 C.ar    1  UNL1        0.1351
     12 C         141.0219  141.5982  170.2492 C.1     1  UNL1        0.1004
     13 N         141.7159  142.1972  171.4364 N.1     1  UNL1       -0.1908
     14 O         137.9968  138.9590  162.9257 O.3     1  UNL1       -0.4717
     15 C         138.5071  137.6835  162.3233 C.3     1  UNL1        0.2525
     16 C         144.2081  140.6426  162.0442 C.ar    1  UNL1        0.2271
     17 C         142.8639  141.0889  162.5382 C.ar    1  UNL1        0.0540
     18 C         141.6194  140.4227  162.0311 C.ar    1  UNL1       -0.0064
     19 C         141.7190  139.3102  161.0298 C.ar    1  UNL1        0.0540
     20 C         143.0631  138.8639  160.5358 C.ar    1  UNL1        0.2271
     21 N         144.3077  139.5301  161.0430 N.ar    1  UNL1       -0.1767
     22 O         145.4527  141.3088  162.5514 O.3     1  UNL1       -0.4602
     23 C         144.9445  142.8034  164.6149 C.3     1  UNL1        0.0512
     24 C         145.6053  141.5976  164.0153 C.3     1  UNL1        0.2072
     25 O         143.1627  137.7514  159.5346 O.3     1  UNL1       -0.4602
     26 C         142.4343  137.8517  158.2271 C.3     1  UNL1        0.2072
     27 C         142.5869  136.7704  157.1987 C.3     1  UNL1        0.0512
     28 C         139.3763  141.6712  161.6317 C.3     1  UNL1        0.1186
     29 O         139.4300  140.5831  160.6006 O.3     1  UNL1       -0.3819
     30 H         138.7198  140.7156  159.9533 H       1  UNL1        0.2107
     31 C         139.3225  142.7593  162.6628 C.ar    1  UNL1        0.0369
     32 C         138.1136  142.9033  163.5389 C.ar    1  UNL1        0.0010
     33 C         138.0598  143.9913  164.5700 C.ar    1  UNL1       -0.0000
     34 C         139.2150  144.9354  164.7250 C.ar    1  UNL1        0.0031
     35 C         140.4240  144.7915  163.8489 C.ar    1  UNL1        0.0375
     36 C         141.7056  145.5670  163.7715 C.ar    1  UNL1        0.0437
     37 C         142.5515  144.9583  162.6926 C.ar    1  UNL1        0.1796
     38 O         141.7926  143.8064  162.1031 O.2     1  UNL1       -0.4507
     39 C         140.4778  143.7034  162.8178 C.ar    1  UNL1        0.1436
     40 C         138.4773  142.4734  160.7383 C.3     1  UNL1        0.0492
     41 C         138.8864  142.7587  159.3235 C.3     1  UNL1        0.0750
     42 N         140.1957  143.4348  159.0433 N.3     1  UNL1       -0.2702
     43 C         141.4033  142.6159  158.6953 C.3     1  UNL1        0.0897
     44 C         140.2975  144.9298  159.1111 C.3     1  UNL1        0.0897
@<TRIPOS>BOND
     1    23    24    1
     2    24    22    1
     3    22    16    1
     4    16    17   ar
     5    17    18   ar
     6     1    18    1
     7     1     2    1
     8     2     3   ar
     9     3     4   ar
    10     4     5   ar
    11     5     6   ar
    12     6    12    1
    13    12    13    3
    14     6     7   ar
    15     7     8   ar
    16     8     9   ar
    17     9    10   ar
    18    10    11   ar
    19    11    14    1
    20    14    15    1
    21     1    28    1
    22    28    29    1
    23    28    40    1
    24    40    41    1
    25    41    42    1
    26    42    43    1
    27    42    44    1
    28    28    31    1
    29    31    32   ar
    30    32    33   ar
    31    33    34   ar
    32    34    35   ar
    33    35    36   ar
    34    36    37   ar
    35    37    38   ar
    36    38    39   ar
    37    18    19   ar
    38    19    20   ar
    39    20    25    1
    40    25    26    1
    41    26    27    1
    42    20    21   ar
    43    21    16   ar
    44    11     2   ar
    45    39    31   ar
    46     9     4   ar
    47    39    35   ar
    48    29    30    1
@<TRIPOS>MOLECULE
*****
 44 48 0 0 0
SMALL
GASTEIGER

@<TRIPOS>ATOM
      1 C         140.9124  140.1926  162.4747 C.3     1  UNL1        0.0764
      2 C         140.2329  139.9007  163.7798 C.ar    1  UNL1        0.0181
      3 C         140.6132  140.6676  165.0115 C.ar    1  UNL1       -0.0009
      4 C         139.9336  140.3757  166.3165 C.ar    1  UNL1        0.0006
      5 C         140.3140  141.1426  167.5482 C.ar    1  UNL1        0.0103
      6 C         139.6344  140.8507  168.8531 C.ar    1  UNL1        0.0684
      7 C         138.5745  139.7918  168.9264 C.ar    1  UNL1        0.0103
      8 C         138.1942  139.0248  167.6947 C.ar    1  UNL1        0.0008
      9 C         138.8738  139.3168  166.3898 C.ar    1  UNL1        0.0030
     10 C         138.4934  138.5498  165.1580 C.ar    1  UNL1        0.0366
     11 C         139.1730  138.8418  163.8530 C.ar    1  UNL1        0.1351
     12 C         140.0148  141.6176  170.0849 C.1     1  UNL1        0.1004
     13 N         140.3951  142.3846  171.3166 N.1     1  UNL1       -0.1908
     14 O         138.7926  138.0748  162.6213 O.3     1  UNL1       -0.4717
     15 C         137.6682  138.5583  161.7541 C.3     1  UNL1        0.2525
     16 C         141.3509  143.2212  159.9478 C.ar    1  UNL1        0.2271
     17 C         141.5462  141.8916  160.6143 C.ar    1  UNL1        0.0540
     18 C         140.7170  141.5221  161.8083 C.ar    1  UNL1       -0.0064
     19 C         139.6924  142.4822  162.3360 C.ar    1  UNL1        0.0540
     20 C         139.4970  143.8117  161.6696 C.ar    1  UNL1        0.2271
     21 N         140.3262  144.1812  160.4754 N.ar    1  UNL1       -0.1767
     22 O         142.1801  143.5906  158.7537 O.3     1  UNL1       -0.4602
     23 C         142.0853  145.8514  157.4771 C.3     1  UNL1        0.0512
     24 C         141.5949  144.4470  157.6702 C.3     1  UNL1        0.2072
     25 O         138.4724  144.7718  162.1972 O.3     1  UNL1       -0.4602
     26 C         137.6777  144.4230  163.4207 C.3     1  UNL1        0.2072
     27 C         138.2876  144.5822  164.7818 C.3     1  UNL1        0.0512
     28 C         141.7874  139.1550  161.8362 C.3     1  UNL1        0.1186
     29 O         140.8515  139.0859  160.6660 O.3     1  UNL1       -0.3819
     30 H         141.2899  138.6350  159.9275 H       1  UNL1        0.2107
     31 C         142.7233  139.2240  163.0064 C.ar    1  UNL1        0.0369
     32 C         142.5723  138.2597  164.1454 C.ar    1  UNL1        0.0010
     33 C         143.5082  138.3288  165.3156 C.ar    1  UNL1       -0.0000
     34 C         144.5951  139.3620  165.3467 C.ar    1  UNL1        0.0031
     35 C         144.7460  140.3263  164.2077 C.ar    1  UNL1        0.0375
     36 C         145.7150  141.4445  163.9610 C.ar    1  UNL1        0.0437
     37 C         145.3779  142.0665  162.6383 C.ar    1  UNL1        0.1796
     38 O         144.2006  141.3328  162.0675 O.2     1  UNL1       -0.4507
     39 C         143.8101  140.2572  163.0375 C.ar    1  UNL1        0.1436
     40 C         142.6623  138.1173  161.1976 C.3     1  UNL1        0.0492
     41 C         143.6520  138.5164  160.1433 C.3     1  UNL1        0.0750
     42 N         143.2127  138.6531  158.7156 N.3     1  UNL1       -0.2702
     43 C         143.3626  139.9667  158.0073 C.3     1  UNL1        0.0897
     44 C         142.6234  137.4760  157.9963 C.3     1  UNL1        0.0897
@<TRIPOS>BOND
     1    23    24    1
     2    24    22    1
     3    22    16    1
     4    16    17   ar
     5    17    18   ar
     6     1    18    1
     7     1     2    1
     8     2     3   ar
     9     3     4   ar
    10     4     5   ar
    11     5     6   ar
    12     6    12    1
    13    12    13    3
    14     6     7   ar
    15     7     8   ar
    16     8     9   ar
    17     9    10   ar
    18    10    11   ar
    19    11    14    1
    20    14    15    1
    21     1    28    1
    22    28    29    1
    23    28    40    1
    24    40    41    1
    25    41    42    1
    26    42    43    1
    27    42    44    1
    28    28    31    1
    29    31    32   ar
    30    32    33   ar
    31    33    34   ar
    32    34    35   ar
    33    35    36   ar
    34    36    37   ar
    35    37    38   ar
    36    38    39   ar
    37    18    19   ar
    38    19    20   ar
    39    20    25    1
    40    25    26    1
    41    26    27    1
    42    20    21   ar
    43    21    16   ar
    44    11     2   ar
    45    39    31   ar
    46     9     4   ar
    47    39    35   ar
    48    29    30    1
@<TRIPOS>MOLECULE
*****
 44 48 0 0 0
SMALL
GASTEIGER

@<TRIPOS>ATOM
      1 C         140.1478  140.0988  164.1752 C.3     1  UNL1        0.0764
      2 C         140.0930  140.2680  165.6647 C.ar    1  UNL1        0.0181
      3 C         141.0492  141.1989  166.3495 C.ar    1  UNL1       -0.0009
      4 C         140.9943  141.3680  167.8390 C.ar    1  UNL1        0.0006
      5 C         141.9505  142.2989  168.5238 C.ar    1  UNL1        0.0103
      6 C         141.8956  142.4680  170.0132 C.ar    1  UNL1        0.0684
      7 C         140.8846  141.7061  170.8178 C.ar    1  UNL1        0.0103
      8 C         139.9284  140.7752  170.1330 C.ar    1  UNL1        0.0008
      9 C         139.9833  140.6061  168.6436 C.ar    1  UNL1        0.0030
     10 C         139.0271  139.6751  167.9586 C.ar    1  UNL1        0.0366
     11 C         139.0820  139.5061  166.4692 C.ar    1  UNL1        0.1351
     12 C         142.8518  143.3990  170.6981 C.1     1  UNL1        0.1004
     13 N         143.8080  144.3299  171.3830 N.1     1  UNL1       -0.1908
     14 O         138.1258  138.5751  165.7843 O.3     1  UNL1       -0.4717
     15 C         137.7255  137.2903  166.4470 C.3     1  UNL1        0.2525
     16 C         144.0135  139.6370  163.4048 C.ar    1  UNL1        0.2271
     17 C         142.7434  140.0899  164.0620 C.ar    1  UNL1        0.0540
     18 C         141.4179  139.6459  163.5181 C.ar    1  UNL1       -0.0064
     19 C         141.3624  138.7490  162.3171 C.ar    1  UNL1        0.0540
     20 C         142.6324  138.2960  161.6599 C.ar    1  UNL1        0.2271
     21 N         143.9580  138.7400  162.2038 N.ar    1  UNL1       -0.1767
     22 O         145.3390  140.0810  163.9487 O.3     1  UNL1       -0.4602
     23 C         145.1490  142.3443  162.6872 C.3     1  UNL1        0.0512
     24 C         145.8046  141.4902  163.7317 C.3     1  UNL1        0.2072
     25 O         142.5769  137.3991  160.4589 O.3     1  UNL1       -0.4602
     26 C         142.5965  137.9898  159.0802 C.3     1  UNL1        0.2072
     27 C         143.1695  139.3582  158.8586 C.3     1  UNL1        0.0512
     28 C         138.9326  140.3827  163.3429 C.3     1  UNL1        0.1186
     29 O         138.7616  138.9138  163.0917 O.3     1  UNL1       -0.3819
     30 H         137.8713  138.7466  162.7450 H       1  UNL1        0.2107
     31 C         139.1036  141.8516  163.5942 C.ar    1  UNL1        0.0369
     32 C         138.2630  142.5383  164.6294 C.ar    1  UNL1        0.0010
     33 C         138.4340  144.0071  164.8807 C.ar    1  UNL1       -0.0000
     34 C         139.4457  144.7893  164.0967 C.ar    1  UNL1        0.0031
     35 C         140.2863  144.1027  163.0615 C.ar    1  UNL1        0.0375
     36 C         141.3563  144.6090  162.1403 C.ar    1  UNL1        0.0437
     37 C         141.8466  143.4531  161.3196 C.ar    1  UNL1        0.1796
     38 O         141.0796  142.2323  161.7337 O.2     1  UNL1       -0.4507
     39 C         140.1153  142.6338  162.8103 C.ar    1  UNL1        0.1436
     40 C         137.7174  140.6665  162.5107 C.3     1  UNL1        0.0492
     41 C         137.5198  139.9552  161.2048 C.3     1  UNL1        0.0750
     42 N         138.4013  140.2771  160.0346 N.3     1  UNL1       -0.2702
     43 C         138.5062  141.6896  159.5408 C.3     1  UNL1        0.0897
     44 C         139.1779  139.1865  159.3582 C.3     1  UNL1        0.0897
@<TRIPOS>BOND
     1    23    24    1
     2    24    22    1
     3    22    16    1
     4    16    17   ar
     5    17    18   ar
     6     1    18    1
     7     1     2    1
     8     2     3   ar
     9     3     4   ar
    10     4     5   ar
    11     5     6   ar
    12     6    12    1
    13    12    13    3
    14     6     7   ar
    15     7     8   ar
    16     8     9   ar
    17     9    10   ar
    18    10    11   ar
    19    11    14    1
    20    14    15    1
    21     1    28    1
    22    28    29    1
    23    28    40    1
    24    40    41    1
    25    41    42    1
    26    42    43    1
    27    42    44    1
    28    28    31    1
    29    31    32   ar
    30    32    33   ar
    31    33    34   ar
    32    34    35   ar
    33    35    36   ar
    34    36    37   ar
    35    37    38   ar
    36    38    39   ar
    37    18    19   ar
    38    19    20   ar
    39    20    25    1
    40    25    26    1
    41    26    27    1
    42    20    21   ar
    43    21    16   ar
    44    11     2   ar
    45    39    31   ar
    46     9     4   ar
    47    39    35   ar
    48    29    30    1
@<TRIPOS>MOLECULE
*****
 44 48 0 0 0
SMALL
GASTEIGER

@<TRIPOS>ATOM
      1 C         140.8454  140.0672  162.4528 C.3     1  UNL1        0.0764
      2 C         140.1840  139.8029  163.7730 C.ar    1  UNL1        0.0181
      3 C         140.5701  140.6060  164.9795 C.ar    1  UNL1       -0.0009
      4 C         139.9087  140.3417  166.2996 C.ar    1  UNL1        0.0006
      5 C         140.2948  141.1448  167.5061 C.ar    1  UNL1        0.0103
      6 C         139.6333  140.8805  168.8262 C.ar    1  UNL1        0.0684
      7 C         138.5857  139.8129  168.9397 C.ar    1  UNL1        0.0103
      8 C         138.1996  139.0098  167.7331 C.ar    1  UNL1        0.0008
      9 C         138.8610  139.2742  166.4131 C.ar    1  UNL1        0.0030
     10 C         138.4749  138.4710  165.2065 C.ar    1  UNL1        0.0366
     11 C         139.1363  138.7354  163.8864 C.ar    1  UNL1        0.1351
     12 C         140.0195  141.6836  170.0328 C.1     1  UNL1        0.1004
     13 N         140.4057  142.4868  171.2393 N.1     1  UNL1       -0.1908
     14 O         138.7502  137.9322  162.6798 O.3     1  UNL1       -0.4717
     15 C         137.6528  138.4141  161.7779 C.3     1  UNL1        0.2525
     16 C         139.4676  143.6984  161.6367 C.ar    1  UNL1        0.2271
     17 C         139.7170  142.4053  162.3550 C.ar    1  UNL1        0.0540
     18 C         140.5960  141.3602  161.7346 C.ar    1  UNL1       -0.0064
     19 C         141.2256  141.6081  160.3958 C.ar    1  UNL1        0.0540
     20 C         140.9762  142.9010  159.6776 C.ar    1  UNL1        0.2271
     21 N         140.0972  143.9463  160.2980 N.ar    1  UNL1       -0.1767
     22 O         138.5886  144.7435  162.2572 O.3     1  UNL1       -0.4602
     23 C         138.2674  144.5008  164.8239 C.3     1  UNL1        0.0512
     24 C         137.7220  144.3944  163.4306 C.3     1  UNL1        0.2072
     25 O         141.6058  143.1489  158.3388 O.3     1  UNL1       -0.4602
     26 C         142.5426  144.3057  158.1532 C.3     1  UNL1        0.2072
     27 C         142.0345  145.5989  157.5880 C.3     1  UNL1        0.0512
     28 C         141.7563  139.0386  161.8510 C.3     1  UNL1        0.1186
     29 O         140.8031  138.8643  160.7061 O.3     1  UNL1       -0.3819
     30 H         141.2484  138.3954  159.9831 H       1  UNL1        0.2107
     31 C         142.7095  139.2128  162.9960 C.ar    1  UNL1        0.0369
     32 C         142.6343  138.2959  164.1808 C.ar    1  UNL1        0.0010
     33 C         143.5875  138.4701  165.3257 C.ar    1  UNL1       -0.0000
     34 C         144.6160  139.5612  165.2860 C.ar    1  UNL1        0.0031
     35 C         144.6913  140.4781  164.1013 C.ar    1  UNL1        0.0375
     36 C         145.5919  141.6346  163.7827 C.ar    1  UNL1        0.0437
     37 C         145.1953  142.1751  162.4409 C.ar    1  UNL1        0.1796
     38 O         144.0495  141.3527  161.9300 O.2     1  UNL1       -0.4507
     39 C         143.7380  140.3039  162.9563 C.ar    1  UNL1        0.1436
     40 C         142.6672  138.0099  161.2493 C.3     1  UNL1        0.0492
     41 C         143.6741  138.4138  160.2134 C.3     1  UNL1        0.0750
     42 N         143.2495  138.5991  158.7868 N.3     1  UNL1       -0.2702
     43 C         143.4355  139.9274  158.1153 C.3     1  UNL1        0.0897
     44 C         142.6389  137.4558  158.0315 C.3     1  UNL1        0.0897
@<TRIPOS>BOND
     1    23    24    1
     2    24    22    1
     3    22    16    1
     4    16    17   ar
     5    17    18   ar
     6     1    18    1
     7     1     2    1
     8     2     3   ar
     9     3     4   ar
    10     4     5   ar
    11     5     6   ar
    12     6    12    1
    13    12    13    3
    14     6     7   ar
    15     7     8   ar
    16     8     9   ar
    17     9    10   ar
    18    10    11   ar
    19    11    14    1
    20    14    15    1
    21     1    28    1
    22    28    29    1
    23    28    40    1
    24    40    41    1
    25    41    42    1
    26    42    43    1
    27    42    44    1
    28    28    31    1
    29    31    32   ar
    30    32    33   ar
    31    33    34   ar
    32    34    35   ar
    33    35    36   ar
    34    36    37   ar
    35    37    38   ar
    36    38    39   ar
    37    18    19   ar
    38    19    20   ar
    39    20    25    1
    40    25    26    1
    41    26    27    1
    42    20    21   ar
    43    21    16   ar
    44    11     2   ar
    45    39    31   ar
    46     9     4   ar
    47    39    35   ar
    48    29    30    1
@<TRIPOS>MOLECULE
*****
 44 48 0 0 0
SMALL
GASTEIGER

@<TRIPOS>ATOM
      1 C         142.0051  141.2961  162.5490 C.3     1  UNL1        0.0764
      2 C         142.1404  141.4138  164.0383 C.ar    1  UNL1        0.0181
      3 C         141.0166  140.9767  164.9304 C.ar    1  UNL1       -0.0009
      4 C         141.1520  141.0944  166.4197 C.ar    1  UNL1        0.0006
      5 C         140.0281  140.6573  167.3118 C.ar    1  UNL1        0.0103
      6 C         140.1635  140.7750  168.8010 C.ar    1  UNL1        0.0684
      7 C         141.4227  141.3299  169.3981 C.ar    1  UNL1        0.0103
      8 C         142.5465  141.7671  168.5060 C.ar    1  UNL1        0.0008
      9 C         142.4111  141.6493  167.0168 C.ar    1  UNL1        0.0030
     10 C         143.5350  142.0865  166.1246 C.ar    1  UNL1        0.0366
     11 C         143.3996  141.9687  164.6354 C.ar    1  UNL1        0.1351
     12 C         139.0397  140.3378  169.6932 C.1     1  UNL1        0.1004
     13 N         137.9159  139.9007  170.5854 N.1     1  UNL1       -0.1908
     14 O         144.5235  142.4059  163.7432 O.3     1  UNL1       -0.4717
     15 C         145.8204  141.6522  163.7466 C.3     1  UNL1        0.2525
     16 C         139.2804  144.0647  161.7363 C.ar    1  UNL1        0.2271
     17 C         140.1074  143.0696  162.4953 C.ar    1  UNL1        0.0540
     18 C         141.1782  142.2912  161.7901 C.ar    1  UNL1       -0.0064
     19 C         141.4221  142.5078  160.3260 C.ar    1  UNL1        0.0540
     20 C         140.5952  143.5028  159.5670 C.ar    1  UNL1        0.2271
     21 N         139.5243  144.2813  160.2722 N.ar    1  UNL1       -0.1767
     22 O         138.2096  144.8432  162.4415 O.3     1  UNL1       -0.4602
     23 C         138.4068  144.6752  165.0266 C.3     1  UNL1        0.0512
     24 C         137.6737  144.3599  163.7565 C.3     1  UNL1        0.2072
     25 O         140.8391  143.7194  158.1029 O.3     1  UNL1       -0.4602
     26 C         142.0761  144.4347  157.6464 C.3     1  UNL1        0.2072
     27 C         142.0839  145.9314  157.5483 C.3     1  UNL1        0.0512
     28 C         142.6967  140.1833  161.8187 C.3     1  UNL1        0.1186
     29 O         143.6147  141.1780  161.1723 O.3     1  UNL1       -0.3819
     30 H         144.3745  140.7141  160.7871 H       1  UNL1        0.2107
     31 C         141.7787  139.1886  162.4651 C.ar    1  UNL1        0.0369
     32 C         142.2693  138.3453  163.6045 C.ar    1  UNL1        0.0010
     33 C         141.3513  137.3506  164.2509 C.ar    1  UNL1       -0.0000
     34 C         139.9427  137.1991  163.7579 C.ar    1  UNL1        0.0031
     35 C         139.4522  138.0424  162.6186 C.ar    1  UNL1        0.0375
     36 C         138.1257  138.1150  161.9220 C.ar    1  UNL1        0.0437
     37 C         138.2239  139.1545  160.8451 C.ar    1  UNL1        0.1796
     38 O         139.6111  139.7245  160.8761 O.2     1  UNL1       -0.4507
     39 C         140.3702  139.0371  161.9722 C.ar    1  UNL1        0.1436
     40 C         143.3883  139.0705  161.0885 C.3     1  UNL1        0.0492
     41 C         143.8356  139.2681  159.6704 C.3     1  UNL1        0.0750
     42 N         142.8194  139.4040  158.5755 N.3     1  UNL1       -0.2702
     43 C         142.9050  140.5494  157.6107 C.3     1  UNL1        0.0897
     44 C         141.7176  138.3945  158.4453 C.3     1  UNL1        0.0897
@<TRIPOS>BOND
     1    23    24    1
     2    24    22    1
     3    22    16    1
     4    16    17   ar
     5    17    18   ar
     6     1    18    1
     7     1     2    1
     8     2     3   ar
     9     3     4   ar
    10     4     5   ar
    11     5     6   ar
    12     6    12    1
    13    12    13    3
    14     6     7   ar
    15     7     8   ar
    16     8     9   ar
    17     9    10   ar
    18    10    11   ar
    19    11    14    1
    20    14    15    1
    21     1    28    1
    22    28    29    1
    23    28    40    1
    24    40    41    1
    25    41    42    1
    26    42    43    1
    27    42    44    1
    28    28    31    1
    29    31    32   ar
    30    32    33   ar
    31    33    34   ar
    32    34    35   ar
    33    35    36   ar
    34    36    37   ar
    35    37    38   ar
    36    38    39   ar
    37    18    19   ar
    38    19    20   ar
    39    20    25    1
    40    25    26    1
    41    26    27    1
    42    20    21   ar
    43    21    16   ar
    44    11     2   ar
    45    39    31   ar
    46     9     4   ar
    47    39    35   ar
    48    29    30    1
@<TRIPOS>MOLECULE
*****
 44 48 0 0 0
SMALL
GASTEIGER

@<TRIPOS>ATOM
      1 C         142.0453  141.2328  162.6410 C.3     1  UNL1        0.0764
      2 C         142.1444  141.3877  164.1298 C.ar    1  UNL1        0.0181
      3 C         141.0197  140.9262  165.0083 C.ar    1  UNL1       -0.0009
      4 C         141.1188  141.0811  166.4971 C.ar    1  UNL1        0.0006
      5 C         139.9941  140.6195  167.3757 C.ar    1  UNL1        0.0103
      6 C         140.0932  140.7744  168.8643 C.ar    1  UNL1        0.0684
      7 C         141.3171  141.3909  169.4744 C.ar    1  UNL1        0.0103
      8 C         142.4418  141.8525  168.5958 C.ar    1  UNL1        0.0008
      9 C         142.3426  141.6976  167.1071 C.ar    1  UNL1        0.0030
     10 C         143.4673  142.1592  166.2285 C.ar    1  UNL1        0.0366
     11 C         143.3682  142.0042  164.7398 C.ar    1  UNL1        0.1351
     12 C         138.9685  140.3128  169.7430 C.1     1  UNL1        0.1004
     13 N         137.8438  139.8512  170.6216 N.1     1  UNL1       -0.1908
     14 O         144.4929  142.4658  163.8611 O.3     1  UNL1       -0.4717
     15 C         145.7739  141.6869  163.8112 C.3     1  UNL1        0.2525
     16 C         140.6888  143.3358  159.5608 C.ar    1  UNL1        0.2271
     17 C         141.4919  142.3567  160.3650 C.ar    1  UNL1        0.0540
     18 C         141.2422  142.2118  161.8369 C.ar    1  UNL1       -0.0064
     19 C         140.1894  143.0459  162.5048 C.ar    1  UNL1        0.0540
     20 C         139.3863  144.0249  161.7007 C.ar    1  UNL1        0.2271
     21 N         139.6360  144.1698  160.2287 N.ar    1  UNL1       -0.1767
     22 O         140.9385  143.4807  158.0889 O.3     1  UNL1       -0.4602
     23 C         141.9813  145.8417  157.7920 C.3     1  UNL1        0.0512
     24 C         142.0544  144.3558  157.6001 C.3     1  UNL1        0.2072
     25 O         138.3336  144.8590  162.3685 O.3     1  UNL1       -0.4602
     26 C         137.6849  144.3771  163.6323 C.3     1  UNL1        0.2072
     27 C         138.3693  144.5809  164.9514 C.3     1  UNL1        0.0512
     28 C         142.7493  140.0989  161.9565 C.3     1  UNL1        0.1186
     29 O         143.7001  141.0713  161.3237 O.3     1  UNL1       -0.3819
     30 H         144.4675  140.5921  160.9740 H       1  UNL1        0.2107
     31 C         141.7984  139.1266  162.5893 C.ar    1  UNL1        0.0369
     32 C         142.2400  138.3000  163.7605 C.ar    1  UNL1        0.0010
     33 C         141.2892  137.3277  164.3933 C.ar    1  UNL1       -0.0000
     34 C         139.8968  137.1818  163.8549 C.ar    1  UNL1        0.0031
     35 C         139.4552  138.0084  162.6836 C.ar    1  UNL1        0.0375
     36 C         138.1544  138.0817  161.9404 C.ar    1  UNL1        0.0437
     37 C         138.3012  139.0994  160.8482 C.ar    1  UNL1        0.1796
     38 O         139.6929  139.6551  160.9165 O.2     1  UNL1       -0.4507
     39 C         140.4061  138.9807  162.0508 C.ar    1  UNL1        0.1436
     40 C         143.4533  138.9650  161.2719 C.3     1  UNL1        0.0492
     41 C         143.9570  139.1326  159.8689 C.3     1  UNL1        0.0750
     42 N         142.9853  139.2509  158.7323 N.3     1  UNL1       -0.2702
     43 C         143.1366  140.3547  157.7280 C.3     1  UNL1        0.0897
     44 C         141.8622  138.2652  158.6001 C.3     1  UNL1        0.0897
@<TRIPOS>BOND
     1    23    24    1
     2    24    22    1
     3    22    16    1
     4    16    17   ar
     5    17    18   ar
     6     1    18    1
     7     1     2    1
     8     2     3   ar
     9     3     4   ar
    10     4     5   ar
    11     5     6   ar
    12     6    12    1
    13    12    13    3
    14     6     7   ar
    15     7     8   ar
    16     8     9   ar
    17     9    10   ar
    18    10    11   ar
    19    11    14    1
    20    14    15    1
    21     1    28    1
    22    28    29    1
    23    28    40    1
    24    40    41    1
    25    41    42    1
    26    42    43    1
    27    42    44    1
    28    28    31    1
    29    31    32   ar
    30    32    33   ar
    31    33    34   ar
    32    34    35   ar
    33    35    36   ar
    34    36    37   ar
    35    37    38   ar
    36    38    39   ar
    37    18    19   ar
    38    19    20   ar
    39    20    25    1
    40    25    26    1
    41    26    27    1
    42    20    21   ar
    43    21    16   ar
    44    11     2   ar
    45    39    31   ar
    46     9     4   ar
    47    39    35   ar
    48    29    30    1
@<TRIPOS>MOLECULE
*****
 44 48 0 0 0
SMALL
GASTEIGER

@<TRIPOS>ATOM
      1 C         140.2579  140.7334  162.6900 C.3     1  UNL1        0.0764
      2 C         139.8106  140.4316  164.0897 C.ar    1  UNL1        0.0181
      3 C         140.5104  141.0673  165.2542 C.ar    1  UNL1       -0.0009
      4 C         140.0632  140.7656  166.6538 C.ar    1  UNL1        0.0006
      5 C         140.7629  141.4013  167.8183 C.ar    1  UNL1        0.0103
      6 C         140.3157  141.0996  169.2179 C.ar    1  UNL1        0.0684
      7 C         139.1686  140.1620  169.4529 C.ar    1  UNL1        0.0103
      8 C         138.4688  139.5263  168.2885 C.ar    1  UNL1        0.0008
      9 C         138.9161  139.8280  166.8889 C.ar    1  UNL1        0.0030
     10 C         138.2163  139.1923  165.7243 C.ar    1  UNL1        0.0366
     11 C         138.6636  139.4941  164.3248 C.ar    1  UNL1        0.1351
     12 C         141.0155  141.7353  170.3824 C.1     1  UNL1        0.1004
     13 N         141.7153  142.3711  171.5469 N.1     1  UNL1       -0.1908
     14 O         137.9638  138.8583  163.1602 O.3     1  UNL1       -0.4717
     15 C         138.4945  137.5854  162.5702 C.3     1  UNL1        0.2525
     16 C         142.9614  138.6055  160.7118 C.ar    1  UNL1        0.2271
     17 C         141.6365  139.1108  161.2013 C.ar    1  UNL1        0.0540
     18 C         141.5827  140.2281  162.2006 C.ar    1  UNL1       -0.0064
     19 C         142.8537  140.8400  162.7106 C.ar    1  UNL1        0.0540
     20 C         144.1785  140.3348  162.2213 C.ar    1  UNL1        0.2271
     21 N         144.2324  139.2175  161.2218 N.ar    1  UNL1       -0.1767
     22 O         143.0152  137.4882  159.7124 O.3     1  UNL1       -0.4602
     23 C         142.9374  139.0366  157.6276 C.3     1  UNL1        0.0512
     24 C         142.6039  137.7332  158.2909 C.3     1  UNL1        0.2072
     25 O         145.4495  140.9467  162.7313 O.3     1  UNL1       -0.4602
     26 C         145.4424  142.3430  163.2794 C.3     1  UNL1        0.2072
     27 C         144.9581  142.5980  164.6760 C.3     1  UNL1        0.0512
     28 C         139.3803  141.5404  161.7798 C.3     1  UNL1        0.1186
     29 O         139.3807  140.4182  160.7845 O.3     1  UNL1       -0.3819
     30 H         138.6688  140.5571  160.1404 H       1  UNL1        0.2107
     31 C         139.3800  142.6626  162.7752 C.ar    1  UNL1        0.0369
     32 C         138.1973  142.8667  163.6749 C.ar    1  UNL1        0.0010
     33 C         138.1969  143.9888  164.6703 C.ar    1  UNL1       -0.0000
     34 C         139.3792  144.9070  164.7658 C.ar    1  UNL1        0.0031
     35 C         140.5619  144.7029  163.8661 C.ar    1  UNL1        0.0375
     36 C         141.8604  145.4417  163.7320 C.ar    1  UNL1        0.0437
     37 C         142.6633  144.7762  162.6539 C.ar    1  UNL1        0.1796
     38 O         141.8610  143.6260  162.1215 O.2     1  UNL1       -0.4507
     39 C         140.5622  143.5807  162.8707 C.ar    1  UNL1        0.1436
     40 C         138.5027  142.3475  160.8696 C.3     1  UNL1        0.0492
     41 C         139.1054  143.1029  159.7223 C.3     1  UNL1        0.0750
     42 N         139.9416  142.3824  158.7066 N.3     1  UNL1       -0.2702
     43 C         139.2833  141.6684  157.5635 C.3     1  UNL1        0.0897
     44 C         141.4363  142.3760  158.8341 C.3     1  UNL1        0.0897
@<TRIPOS>BOND
     1    23    24    1
     2    24    22    1
     3    22    16    1
     4    16    17   ar
     5    17    18   ar
     6     1    18    1
     7     1     2    1
     8     2     3   ar
     9     3     4   ar
    10     4     5   ar
    11     5     6   ar
    12     6    12    1
    13    12    13    3
    14     6     7   ar
    15     7     8   ar
    16     8     9   ar
    17     9    10   ar
    18    10    11   ar
    19    11    14    1
    20    14    15    1
    21     1    28    1
    22    28    29    1
    23    28    40    1
    24    40    41    1
    25    41    42    1
    26    42    43    1
    27    42    44    1
    28    28    31    1
    29    31    32   ar
    30    32    33   ar
    31    33    34   ar
    32    34    35   ar
    33    35    36   ar
    34    36    37   ar
    35    37    38   ar
    36    38    39   ar
    37    18    19   ar
    38    19    20   ar
    39    20    25    1
    40    25    26    1
    41    26    27    1
    42    20    21   ar
    43    21    16   ar
    44    11     2   ar
    45    39    31   ar
    46     9     4   ar
    47    39    35   ar
    48    29    30    1
@<TRIPOS>MOLECULE
*****
 44 48 0 0 0
SMALL
GASTEIGER

@<TRIPOS>ATOM
      1 C         142.1133  142.0330  162.8973 C.3     1  UNL1        0.0764
      2 C         142.2131  142.0135  164.3939 C.ar    1  UNL1        0.0181
      3 C         141.0706  141.4933  165.2150 C.ar    1  UNL1       -0.0009
      4 C         141.1704  141.4738  166.7116 C.ar    1  UNL1        0.0006
      5 C         140.0279  140.9537  167.5327 C.ar    1  UNL1        0.0103
      6 C         140.1277  140.9341  169.0292 C.ar    1  UNL1        0.0684
      7 C         141.3700  141.4348  169.7046 C.ar    1  UNL1        0.0103
      8 C         142.5124  141.9549  168.8835 C.ar    1  UNL1        0.0008
      9 C         142.4126  141.9744  167.3870 C.ar    1  UNL1        0.0030
     10 C         143.5551  142.4946  166.5658 C.ar    1  UNL1        0.0366
     11 C         143.4553  142.5141  165.0693 C.ar    1  UNL1        0.1351
     12 C         138.9852  140.4140  169.8503 C.1     1  UNL1        0.1004
     13 N         137.8428  139.8939  170.6714 N.1     1  UNL1       -0.1908
     14 O         144.5978  143.0343  164.2482 O.3     1  UNL1       -0.4717
     15 C         145.6744  142.0988  163.7835 C.3     1  UNL1        0.2525
     16 C         142.0708  138.2060  161.8476 C.ar    1  UNL1        0.2271
     17 C         141.8371  139.4635  162.6314 C.ar    1  UNL1        0.0540
     18 C         142.3471  140.7756  162.1136 C.ar    1  UNL1       -0.0064
     19 C         143.0907  140.8304  160.8121 C.ar    1  UNL1        0.0540
     20 C         143.3245  139.5730  160.0283 C.ar    1  UNL1        0.2271
     21 N         142.8145  138.2607  160.5461 N.ar    1  UNL1       -0.1767
     22 O         141.5609  136.8938  162.3654 O.3     1  UNL1       -0.4602
     23 C         139.6139  137.4154  164.0047 C.3     1  UNL1        0.0512
     24 C         140.9607  136.8113  163.7376 C.3     1  UNL1        0.2072
     25 O         144.0682  139.6277  158.7268 O.3     1  UNL1       -0.4602
     26 C         143.3193  139.5328  157.4305 C.3     1  UNL1        0.2072
     27 C         141.8226  139.6323  157.4200 C.3     1  UNL1        0.0512
     28 C         141.7798  143.3100  162.1845 C.3     1  UNL1        0.1186
     29 O         143.2418  143.5832  161.9899 O.3     1  UNL1       -0.3819
     30 H         143.3551  144.2742  161.3186 H       1  UNL1        0.2107
     31 C         140.3178  143.0368  162.3791 C.ar    1  UNL1        0.0369
     32 C         139.6017  142.0947  161.4574 C.ar    1  UNL1        0.0010
     33 C         138.1397  141.8214  161.6519 C.ar    1  UNL1       -0.0000
     34 C         137.3938  142.4904  162.7682 C.ar    1  UNL1        0.0031
     35 C         138.1098  143.4325  163.6899 C.ar    1  UNL1        0.0375
     36 C         137.6417  144.2327  164.8691 C.ar    1  UNL1        0.0437
     37 C         138.8143  145.0005  165.4033 C.ar    1  UNL1        0.1796
     38 O         140.0073  144.6748  164.5542 O.2     1  UNL1       -0.4507
     39 C         139.5719  143.7057  163.4953 C.ar    1  UNL1        0.1436
     40 C         141.4463  144.5870  161.4717 C.3     1  UNL1        0.0492
     41 C         141.9695  144.8319  160.0873 C.3     1  UNL1        0.0750
     42 N         141.1010  144.5518  158.8969 N.3     1  UNL1       -0.2702
     43 C         141.1156  143.1934  158.2608 C.3     1  UNL1        0.0897
     44 C         140.2179  145.6301  158.3424 C.3     1  UNL1        0.0897
@<TRIPOS>BOND
     1    23    24    1
     2    24    22    1
     3    22    16    1
     4    16    17   ar
     5    17    18   ar
     6     1    18    1
     7     1     2    1
     8     2     3   ar
     9     3     4   ar
    10     4     5   ar
    11     5     6   ar
    12     6    12    1
    13    12    13    3
    14     6     7   ar
    15     7     8   ar
    16     8     9   ar
    17     9    10   ar
    18    10    11   ar
    19    11    14    1
    20    14    15    1
    21     1    28    1
    22    28    29    1
    23    28    40    1
    24    40    41    1
    25    41    42    1
    26    42    43    1
    27    42    44    1
    28    28    31    1
    29    31    32   ar
    30    32    33   ar
    31    33    34   ar
    32    34    35   ar
    33    35    36   ar
    34    36    37   ar
    35    37    38   ar
    36    38    39   ar
    37    18    19   ar
    38    19    20   ar
    39    20    25    1
    40    25    26    1
    41    26    27    1
    42    20    21   ar
    43    21    16   ar
    44    11     2   ar
    45    39    31   ar
    46     9     4   ar
    47    39    35   ar
    48    29    30    1
@<TRIPOS>MOLECULE
*****
 44 48 0 0 0
SMALL
GASTEIGER

@<TRIPOS>ATOM
      1 C         140.5746  140.8935  162.0946 C.3     1  UNL1        0.0764
      2 C         140.4093  140.6442  163.5645 C.ar    1  UNL1        0.0181
      3 C         140.5451  141.7777  164.5374 C.ar    1  UNL1       -0.0009
      4 C         140.3798  141.5284  166.0074 C.ar    1  UNL1        0.0006
      5 C         140.5156  142.6619  166.9803 C.ar    1  UNL1        0.0103
      6 C         140.3503  142.4126  168.4501 C.ar    1  UNL1        0.0684
      7 C         140.0492  141.0297  168.9470 C.ar    1  UNL1        0.0103
      8 C         139.9134  139.8961  167.9741 C.ar    1  UNL1        0.0008
      9 C         140.0787  140.1455  166.5043 C.ar    1  UNL1        0.0030
     10 C         139.9430  139.0119  165.5313 C.ar    1  UNL1        0.0366
     11 C         140.1083  139.2613  164.0615 C.ar    1  UNL1        0.1351
     12 C         140.4860  143.5462  169.4231 C.1     1  UNL1        0.1004
     13 N         140.6217  144.6797  170.3960 N.1     1  UNL1       -0.1908
     14 O         139.9725  138.1277  163.0885 O.3     1  UNL1       -0.4717
     15 C         138.6139  137.5928  162.7450 C.3     1  UNL1        0.2525
     16 C         143.4868  141.4844  159.4641 C.ar    1  UNL1        0.2271
     17 C         142.1186  141.2652  160.0385 C.ar    1  UNL1        0.0540
     18 C         141.9429  141.1126  161.5203 C.ar    1  UNL1       -0.0064
     19 C         143.1354  141.1790  162.4277 C.ar    1  UNL1        0.0540
     20 C         144.5036  141.3981  161.8534 C.ar    1  UNL1        0.2271
     21 N         144.6794  141.5508  160.3715 N.ar    1  UNL1       -0.1767
     22 O         143.6625  141.6370  157.9823 O.3     1  UNL1       -0.4602
     23 C         145.6015  141.2476  156.2974 C.3     1  UNL1        0.0512
     24 C         144.9962  142.0341  157.4221 C.3     1  UNL1        0.2072
     25 O         145.6961  141.4646  162.7609 O.3     1  UNL1       -0.4602
     26 C         145.5101  141.7289  164.2257 C.3     1  UNL1        0.2072
     27 C         144.8567  142.9999  164.6813 C.3     1  UNL1        0.0512
     28 C         139.3717  140.9237  161.1991 C.3     1  UNL1        0.1186
     29 O         139.8935  139.7286  160.4578 O.3     1  UNL1       -0.3819
     30 H         139.1813  139.3429  159.9241 H       1  UNL1        0.2107
     31 C         138.8498  142.1188  161.9404 C.ar    1  UNL1        0.0369
     32 C         137.7903  141.9475  162.9882 C.ar    1  UNL1        0.0010
     33 C         137.2685  143.1426  163.7295 C.ar    1  UNL1       -0.0000
     34 C         137.8062  144.5089  163.4230 C.ar    1  UNL1        0.0031
     35 C         138.8657  144.6801  162.3752 C.ar    1  UNL1        0.0375
     36 C         139.5816  145.8937  161.8606 C.ar    1  UNL1        0.0437
     37 C         140.5458  145.4487  160.8012 C.ar    1  UNL1        0.1796
     38 O         140.4259  143.9600  160.6611 O.2     1  UNL1       -0.4507
     39 C         139.3876  143.4851  161.6339 C.ar    1  UNL1        0.1436
     40 C         138.1687  140.9539  160.3036 C.3     1  UNL1        0.0492
     41 C         138.2544  140.3971  158.9134 C.3     1  UNL1        0.0750
     42 N         138.8589  141.2177  157.8128 N.3     1  UNL1       -0.2702
     43 C         139.9938  140.6656  157.0023 C.3     1  UNL1        0.0897
     44 C         138.3282  142.5904  157.5227 C.3     1  UNL1        0.0897
@<TRIPOS>BOND
     1    23    24    1
     2    24    22    1
     3    22    16    1
     4    16    17   ar
     5    17    18   ar
     6     1    18    1
     7     1     2    1
     8     2     3   ar
     9     3     4   ar
    10     4     5   ar
    11     5     6   ar
    12     6    12    1
    13    12    13    3
    14     6     7   ar
    15     7     8   ar
    16     8     9   ar
    17     9    10   ar
    18    10    11   ar
    19    11    14    1
    20    14    15    1
    21     1    28    1
    22    28    29    1
    23    28    40    1
    24    40    41    1
    25    41    42    1
    26    42    43    1
    27    42    44    1
    28    28    31    1
    29    31    32   ar
    30    32    33   ar
    31    33    34   ar
    32    34    35   ar
    33    35    36   ar
    34    36    37   ar
    35    37    38   ar
    36    38    39   ar
    37    18    19   ar
    38    19    20   ar
    39    20    25    1
    40    25    26    1
    41    26    27    1
    42    20    21   ar
    43    21    16   ar
    44    11     2   ar
    45    39    31   ar
    46     9     4   ar
    47    39    35   ar
    48    29    30    1
