@<TRIPOS>MOLECULE
*****
 28 31 0 0 0
SMALL
GASTEIGER

@<TRIPOS>ATOM
      1 C         144.0332  139.2899  160.4913 C.3     1  UNL1        0.1123
      2 O         141.1097  140.6996  160.8310 O.2     1  UNL1       -0.2520
      3 C         142.4381  141.3595  161.0546 C.2     1  UNL1        0.3111
      4 N         143.7819  140.7116  160.8984 N.am    1  UNL1       -0.2606
      5 C         144.8302  141.7349  161.2208 C.3     1  UNL1        0.1169
      6 C         144.1343  143.0153  161.5763 C.3     1  UNL1        0.1212
      7 N         142.6558  142.7833  161.4735 N.am    1  UNL1       -0.2413
      8 C         141.5835  143.7971  161.7425 C.ar    1  UNL1        0.0562
      9 C         141.1937  144.7774  160.6762 C.ar    1  UNL1        0.0150
     10 C         140.1214  145.7912  160.9451 C.ar    1  UNL1        0.0021
     11 C         139.4389  145.8246  162.2804 C.ar    1  UNL1        0.0115
     12 C         139.8287  144.8443  163.3468 C.ar    1  UNL1        0.0589
     13 CL        139.1462  144.8778  164.6821 Cl      1  UNL1       -0.0822
     14 C         140.9010  143.8306  163.0778 C.ar    1  UNL1        0.0263
     15 C         143.8867  138.1852  161.4953 C.3     1  UNL1        0.0939
     16 N         143.3769  138.4869  162.8734 N.3     1  UNL1       -0.2712
     17 C         144.2517  139.2081  163.8554 C.3     1  UNL1        0.0725
     18 C         143.7419  139.5098  165.2335 C.3     1  UNL1        0.0217
     19 C         142.3573  139.0902  165.6295 C.3     1  UNL1        0.0251
     20 C         141.4825  138.3689  164.6474 C.3     1  UNL1        0.0217
     21 C         141.9923  138.0673  163.2694 C.3     1  UNL1        0.0725
     22 C         141.8475  139.3919  167.0076 C.ar    1  UNL1       -0.0224
     23 C         142.7429  139.2039  168.1963 C.ar    1  UNL1       -0.0034
     24 C         142.2331  139.5056  169.5744 C.ar    1  UNL1        0.0111
     25 C         140.8279  139.9952  169.7638 C.ar    1  UNL1        0.0577
     26 CL        140.3182  140.2969  171.1418 Cl      1  UNL1       -0.0822
     27 C         139.9326  140.1832  168.5750 C.ar    1  UNL1        0.0111
     28 C         140.4424  139.8815  167.1970 C.ar    1  UNL1       -0.0034
@<TRIPOS>BOND
     1     2     3    2
     2     3     4   am
     3     4     1    1
     4     1    15    1
     5    15    16    1
     6    16    17    1
     7    17    18    1
     8    18    19    1
     9    19    22    1
    10    22    23   ar
    11    23    24   ar
    12    24    25   ar
    13    25    26    1
    14    25    27   ar
    15    27    28   ar
    16    19    20    1
    17    20    21    1
    18     4     5    1
    19     5     6    1
    20     6     7    1
    21     7     8    1
    22     8     9   ar
    23     9    10   ar
    24    10    11   ar
    25    11    12   ar
    26    12    13    1
    27    12    14   ar
    28     7     3   am
    29    14     8   ar
    30    21    16    1
    31    28    22   ar
@<TRIPOS>MOLECULE
*****
 28 31 0 0 0
SMALL
GASTEIGER

@<TRIPOS>ATOM
      1 C         143.3962  138.8078  160.1827 C.3     1  UNL1        0.1123
      2 O         143.5366  141.8562  161.3390 O.2     1  UNL1       -0.2520
      3 C         142.3036  141.1532  160.8538 C.2     1  UNL1        0.3111
      4 N         142.2390  139.7520  160.3223 N.am    1  UNL1       -0.2606
      5 C         140.8141  139.4608  159.9550 C.3     1  UNL1        0.1169
      6 C         139.9980  140.6820  160.2594 C.3     1  UNL1        0.1212
      7 N         140.9185  141.7280  160.8149 N.am    1  UNL1       -0.2413
      8 C         140.5235  143.1067  161.2544 C.ar    1  UNL1        0.0562
      9 C         140.6439  144.2604  160.3033 C.ar    1  UNL1        0.0150
     10 C         140.2488  145.6390  160.7427 C.ar    1  UNL1        0.0021
     11 C         139.7333  145.8640  162.1333 C.ar    1  UNL1        0.0115
     12 C         139.6128  144.7103  163.0843 C.ar    1  UNL1        0.0589
     13 CL        139.0973  144.9353  164.4749 Cl      1  UNL1       -0.0822
     14 C         140.0079  143.3317  162.6449 C.ar    1  UNL1        0.0263
     15 C         143.8762  138.0289  161.3713 C.3     1  UNL1        0.0939
     16 N         143.3643  138.3604  162.7418 N.3     1  UNL1       -0.2712
     17 C         142.0451  137.8148  163.2019 C.3     1  UNL1        0.0725
     18 C         141.5333  138.1463  164.5724 C.3     1  UNL1        0.0217
     19 C         142.3407  139.0235  165.4826 C.3     1  UNL1        0.0251
     20 C         143.6599  139.5691  165.0225 C.3     1  UNL1        0.0217
     21 C         144.1718  139.2376  163.6521 C.3     1  UNL1        0.0725
     22 C         141.8288  139.3550  166.8531 C.ar    1  UNL1       -0.0224
     23 C         140.4215  139.8427  167.0304 C.ar    1  UNL1       -0.0034
     24 C         139.9096  140.1742  168.4009 C.ar    1  UNL1        0.0111
     25 C         140.8051  140.0180  169.5940 C.ar    1  UNL1        0.0577
     26 CL        140.2933  140.3494  170.9645 Cl      1  UNL1       -0.0822
     27 C         142.2125  139.5302  169.4167 C.ar    1  UNL1        0.0111
     28 C         142.7243  139.1987  168.0463 C.ar    1  UNL1       -0.0034
@<TRIPOS>BOND
     1     2     3    2
     2     3     4   am
     3     4     1    1
     4     1    15    1
     5    15    16    1
     6    16    17    1
     7    17    18    1
     8    18    19    1
     9    19    22    1
    10    22    23   ar
    11    23    24   ar
    12    24    25   ar
    13    25    26    1
    14    25    27   ar
    15    27    28   ar
    16    19    20    1
    17    20    21    1
    18     4     5    1
    19     5     6    1
    20     6     7    1
    21     7     8    1
    22     8     9   ar
    23     9    10   ar
    24    10    11   ar
    25    11    12   ar
    26    12    13    1
    27    12    14   ar
    28     7     3   am
    29    14     8   ar
    30    21    16    1
    31    28    22   ar
@<TRIPOS>MOLECULE
*****
 28 31 0 0 0
SMALL
GASTEIGER

@<TRIPOS>ATOM
      1 C         138.4555  139.1917  160.4712 C.3     1  UNL1        0.1123
      2 O         139.3665  138.1245  157.5248 O.2     1  UNL1       -0.2520
      3 C         140.2794  138.4099  158.6803 C.2     1  UNL1        0.3111
      4 N         139.8608  138.9004  160.0346 N.am    1  UNL1       -0.2606
      5 C         141.0939  139.0485  160.8757 C.3     1  UNL1        0.1169
      6 C         142.2748  138.6495  160.0412 C.3     1  UNL1        0.1212
      7 N         141.7715  138.2548  158.6844 N.am    1  UNL1       -0.2413
      8 C         142.6124  137.7871  157.5337 C.ar    1  UNL1        0.0562
      9 C         143.2750  138.7876  156.6336 C.ar    1  UNL1        0.0150
     10 C         144.1160  138.3200  155.4830 C.ar    1  UNL1        0.0021
     11 C         144.2943  136.8519  155.2323 C.ar    1  UNL1        0.0115
     12 C         143.6318  135.8514  156.1324 C.ar    1  UNL1        0.0589
     13 CL        143.8101  134.3833  155.8817 Cl      1  UNL1       -0.0822
     14 C         142.7908  136.3190  157.2831 C.ar    1  UNL1        0.0263
     15 C         137.9089  138.5542  161.7141 C.3     1  UNL1        0.0939
     16 N         138.3149  139.0707  163.0626 N.3     1  UNL1       -0.2712
     17 C         138.1929  140.5330  163.3735 C.3     1  UNL1        0.0725
     18 C         138.5988  141.0495  164.7220 C.3     1  UNL1        0.0217
     19 C         139.1267  140.1035  165.7596 C.3     1  UNL1        0.0251
     20 C         139.2486  138.6412  165.4487 C.3     1  UNL1        0.0217
     21 C         138.8427  138.1248  164.1002 C.3     1  UNL1        0.0725
     22 C         139.5326  140.6200  167.1082 C.ar    1  UNL1       -0.0224
     23 C         139.1685  139.8541  168.3454 C.ar    1  UNL1       -0.0034
     24 C         139.5744  140.3706  169.6940 C.ar    1  UNL1        0.0111
     25 C         140.3445  141.6530  169.8052 C.ar    1  UNL1        0.0577
     26 CL        140.7504  142.1695  171.1537 Cl      1  UNL1       -0.0822
     27 C         140.7086  142.4189  168.5679 C.ar    1  UNL1        0.0111
     28 C         140.3027  141.9024  167.2195 C.ar    1  UNL1       -0.0034
@<TRIPOS>BOND
     1     2     3    2
     2     3     4   am
     3     4     1    1
     4     1    15    1
     5    15    16    1
     6    16    17    1
     7    17    18    1
     8    18    19    1
     9    19    22    1
    10    22    23   ar
    11    23    24   ar
    12    24    25   ar
    13    25    26    1
    14    25    27   ar
    15    27    28   ar
    16    19    20    1
    17    20    21    1
    18     4     5    1
    19     5     6    1
    20     6     7    1
    21     7     8    1
    22     8     9   ar
    23     9    10   ar
    24    10    11   ar
    25    11    12   ar
    26    12    13    1
    27    12    14   ar
    28     7     3   am
    29    14     8   ar
    30    21    16    1
    31    28    22   ar
@<TRIPOS>MOLECULE
*****
 28 31 0 0 0
SMALL
GASTEIGER

@<TRIPOS>ATOM
      1 C         138.8455  138.3650  160.6945 C.3     1  UNL1        0.1123
      2 O         141.5885  139.2296  162.2365 O.2     1  UNL1       -0.2520
      3 C         140.7875  140.0956  161.3100 C.2     1  UNL1        0.3111
      4 N         139.5266  139.6982  160.6012 N.am    1  UNL1       -0.2606
      5 C         139.0665  140.8681  159.7828 C.3     1  UNL1        0.1169
      6 C         140.0429  141.9885  159.9858 C.3     1  UNL1        0.1212
      7 N         141.1066  141.5111  160.9297 N.am    1  UNL1       -0.2413
      8 C         142.2828  142.3091  161.4090 C.ar    1  UNL1        0.0562
      9 C         143.6610  141.9854  160.9131 C.ar    1  UNL1        0.0150
     10 C         144.8372  142.7833  161.3925 C.ar    1  UNL1        0.0021
     11 C         144.6352  143.9050  162.3677 C.ar    1  UNL1        0.0115
     12 C         143.2570  144.2287  162.8636 C.ar    1  UNL1        0.0589
     13 CL        143.0550  145.3503  163.8389 Cl      1  UNL1       -0.0822
     14 C         142.0808  143.4307  162.3843 C.ar    1  UNL1        0.0263
     15 C         138.0509  138.0126  161.9169 C.3     1  UNL1        0.0939
     16 N         138.4110  138.6119  163.2441 N.3     1  UNL1       -0.2712
     17 C         139.2750  137.8473  164.2026 C.3     1  UNL1        0.0725
     18 C         139.6350  138.4465  165.5296 C.3     1  UNL1        0.0217
     19 C         139.1311  139.8104  165.8982 C.3     1  UNL1        0.0251
     20 C         138.2671  140.5750  164.9397 C.3     1  UNL1        0.0217
     21 C         137.9070  139.9758  163.6126 C.3     1  UNL1        0.0725
     22 C         139.4912  140.4097  167.2254 C.ar    1  UNL1       -0.0224
     23 C         140.4168  141.5883  167.2898 C.ar    1  UNL1       -0.0034
     24 C         140.7769  142.1875  168.6169 C.ar    1  UNL1        0.0111
     25 C         140.2113  141.6081  169.8797 C.ar    1  UNL1        0.0577
     26 CL        140.5714  142.2073  171.2068 Cl      1  UNL1       -0.0822
     27 C         139.2857  140.4295  169.8152 C.ar    1  UNL1        0.0111
     28 C         138.9256  139.8303  168.4881 C.ar    1  UNL1       -0.0034
@<TRIPOS>BOND
     1     2     3    2
     2     3     4   am
     3     4     1    1
     4     1    15    1
     5    15    16    1
     6    16    17    1
     7    17    18    1
     8    18    19    1
     9    19    22    1
    10    22    23   ar
    11    23    24   ar
    12    24    25   ar
    13    25    26    1
    14    25    27   ar
    15    27    28   ar
    16    19    20    1
    17    20    21    1
    18     4     5    1
    19     5     6    1
    20     6     7    1
    21     7     8    1
    22     8     9   ar
    23     9    10   ar
    24    10    11   ar
    25    11    12   ar
    26    12    13    1
    27    12    14   ar
    28     7     3   am
    29    14     8   ar
    30    21    16    1
    31    28    22   ar
@<TRIPOS>MOLECULE
*****
 28 31 0 0 0
SMALL
GASTEIGER

@<TRIPOS>ATOM
      1 C         138.1261  138.1820  161.9893 C.3     1  UNL1        0.1123
      2 O         137.5395  141.3814  161.7266 O.2     1  UNL1       -0.2520
      3 C         138.7257  140.6536  161.1669 C.2     1  UNL1        0.3111
      4 N         138.9954  139.1830  161.2876 N.am    1  UNL1       -0.2606
      5 C         140.2869  138.8892  160.5836 C.3     1  UNL1        0.1169
      6 C         140.8154  140.1782  160.0277 C.3     1  UNL1        0.1212
      7 N         139.8506  141.2688  160.3882 N.am    1  UNL1       -0.2413
      8 C         139.9867  142.7196  160.0325 C.ar    1  UNL1        0.0562
      9 C         140.1675  143.1269  158.6002 C.ar    1  UNL1        0.0150
     10 C         140.3037  144.5777  158.2445 C.ar    1  UNL1        0.0021
     11 C         140.2590  145.6212  159.3211 C.ar    1  UNL1        0.0115
     12 C         140.0782  145.2140  160.7534 C.ar    1  UNL1        0.0589
     13 CL        140.0335  146.2575  161.8299 Cl      1  UNL1       -0.0822
     14 C         139.9420  143.7631  161.1091 C.ar    1  UNL1        0.0263
     15 C         138.6018  137.5319  163.2546 C.3     1  UNL1        0.0939
     16 N         139.2377  138.3613  164.3307 N.3     1  UNL1       -0.2712
     17 C         138.3848  139.2111  165.2253 C.3     1  UNL1        0.0725
     18 C         139.0207  140.0404  166.3013 C.3     1  UNL1        0.0217
     19 C         140.5096  140.0198  166.4828 C.3     1  UNL1        0.0251
     20 C         141.3625  139.1699  165.5882 C.3     1  UNL1        0.0217
     21 C         140.7266  138.3407  164.5122 C.3     1  UNL1        0.0725
     22 C         141.1455  140.8491  167.5589 C.ar    1  UNL1       -0.0224
     23 C         140.4951  142.1248  168.0055 C.ar    1  UNL1       -0.0034
     24 C         141.1310  142.9542  169.0816 C.ar    1  UNL1        0.0111
     25 C         142.4173  142.5077  169.7110 C.ar    1  UNL1        0.0577
     26 CL        143.0532  143.3370  170.7870 Cl      1  UNL1       -0.0822
     27 C         143.0677  141.2319  169.2643 C.ar    1  UNL1        0.0111
     28 C         142.4318  140.4027  168.1883 C.ar    1  UNL1       -0.0034
@<TRIPOS>BOND
     1     2     3    2
     2     3     4   am
     3     4     1    1
     4     1    15    1
     5    15    16    1
     6    16    17    1
     7    17    18    1
     8    18    19    1
     9    19    22    1
    10    22    23   ar
    11    23    24   ar
    12    24    25   ar
    13    25    26    1
    14    25    27   ar
    15    27    28   ar
    16    19    20    1
    17    20    21    1
    18     4     5    1
    19     5     6    1
    20     6     7    1
    21     7     8    1
    22     8     9   ar
    23     9    10   ar
    24    10    11   ar
    25    11    12   ar
    26    12    13    1
    27    12    14   ar
    28     7     3   am
    29    14     8   ar
    30    21    16    1
    31    28    22   ar
@<TRIPOS>MOLECULE
*****
 28 31 0 0 0
SMALL
GASTEIGER

@<TRIPOS>ATOM
      1 C         140.5867  145.2359  160.7252 C.3     1  UNL1        0.1123
      2 O         142.9798  143.0224  160.8764 O.2     1  UNL1       -0.2520
      3 C         141.5292  142.7367  160.6231 C.2     1  UNL1        0.3111
      4 N         140.4292  143.7541  160.5536 N.am    1  UNL1       -0.2606
      5 C         139.1440  143.0296  160.2824 C.3     1  UNL1        0.1169
      6 C         139.4497  141.5644  160.1843 C.3     1  UNL1        0.1212
      7 N         140.9239  141.3833  160.3948 N.am    1  UNL1       -0.2413
      8 C         141.6629  140.0781  160.3797 C.ar    1  UNL1        0.0562
      9 C         142.2511  139.5346  161.6480 C.ar    1  UNL1        0.0150
     10 C         142.9901  138.2293  161.6330 C.ar    1  UNL1        0.0021
     11 C         143.1408  137.4676  160.3496 C.ar    1  UNL1        0.0115
     12 C         142.5526  138.0111  159.0813 C.ar    1  UNL1        0.0589
     13 CL        142.7033  137.2494  157.7979 Cl      1  UNL1       -0.0822
     14 C         141.8136  139.3163  159.0964 C.ar    1  UNL1        0.0263
     15 C         140.3472  145.8654  162.0655 C.3     1  UNL1        0.0939
     16 N         140.3062  145.0119  163.2984 N.3     1  UNL1       -0.2712
     17 C         141.5630  144.3730  163.8104 C.3     1  UNL1        0.0725
     18 C         141.5220  143.5195  165.0432 C.3     1  UNL1        0.0217
     19 C         140.2241  143.3051  165.7641 C.3     1  UNL1        0.0251
     20 C         138.9674  143.9440  165.2521 C.3     1  UNL1        0.0217
     21 C         139.0084  144.7975  164.0193 C.3     1  UNL1        0.0725
     22 C         140.1832  142.4516  166.9970 C.ar    1  UNL1       -0.0224
     23 C         140.4341  143.0651  168.3426 C.ar    1  UNL1       -0.0034
     24 C         140.3931  142.2117  169.5755 C.ar    1  UNL1        0.0111
     25 C         140.1012  140.7447  169.4627 C.ar    1  UNL1        0.0577
     26 CL        140.0602  139.8912  170.6955 Cl      1  UNL1       -0.0822
     27 C         139.8503  140.1311  168.1171 C.ar    1  UNL1        0.0111
     28 C         139.8913  140.9846  166.8842 C.ar    1  UNL1       -0.0034
@<TRIPOS>BOND
     1     2     3    2
     2     3     4   am
     3     4     1    1
     4     1    15    1
     5    15    16    1
     6    16    17    1
     7    17    18    1
     8    18    19    1
     9    19    22    1
    10    22    23   ar
    11    23    24   ar
    12    24    25   ar
    13    25    26    1
    14    25    27   ar
    15    27    28   ar
    16    19    20    1
    17    20    21    1
    18     4     5    1
    19     5     6    1
    20     6     7    1
    21     7     8    1
    22     8     9   ar
    23     9    10   ar
    24    10    11   ar
    25    11    12   ar
    26    12    13    1
    27    12    14   ar
    28     7     3   am
    29    14     8   ar
    30    21    16    1
    31    28    22   ar
@<TRIPOS>MOLECULE
*****
 28 31 0 0 0
SMALL
GASTEIGER

@<TRIPOS>ATOM
      1 C         143.0619  138.7195  160.1769 C.3     1  UNL1        0.1123
      2 O         142.6513  141.6600  161.5313 O.2     1  UNL1       -0.2520
      3 C         141.5584  140.7319  161.0907 C.2     1  UNL1        0.3111
      4 N         141.7471  139.3803  160.4681 N.am    1  UNL1       -0.2606
      5 C         140.3902  138.8054  160.1880 C.3     1  UNL1        0.1169
      6 C         139.3629  139.8017  160.6374 C.3     1  UNL1        0.1212
      7 N         140.0849  140.9924  161.1953 N.am    1  UNL1       -0.2413
      8 C         139.4456  142.2267  161.7589 C.ar    1  UNL1        0.0562
      9 C         138.2342  142.1103  162.6360 C.ar    1  UNL1        0.0150
     10 C         137.5949  143.3447  163.1996 C.ar    1  UNL1        0.0021
     11 C         138.1669  144.6954  162.8861 C.ar    1  UNL1        0.0115
     12 C         139.3782  144.8118  162.0090 C.ar    1  UNL1        0.0589
     13 CL        139.9502  146.1626  161.6955 Cl      1  UNL1       -0.0822
     14 C         140.0175  143.5775  161.4454 C.ar    1  UNL1        0.0263
     15 C         143.9312  138.2492  161.3052 C.3     1  UNL1        0.0939
     16 N         143.6683  138.7253  162.7032 N.3     1  UNL1       -0.2712
     17 C         142.5579  138.1159  163.5067 C.3     1  UNL1        0.0725
     18 C         142.2951  138.5920  164.9046 C.3     1  UNL1        0.0217
     19 C         143.1428  139.6774  165.4991 C.3     1  UNL1        0.0251
     20 C         144.2532  140.2868  164.6956 C.3     1  UNL1        0.0217
     21 C         144.5159  139.8107  163.2977 C.3     1  UNL1        0.0725
     22 C         142.8799  140.1535  166.8971 C.ar    1  UNL1       -0.0224
     23 C         142.7884  141.6229  167.1842 C.ar    1  UNL1       -0.0034
     24 C         142.5255  142.0989  168.5822 C.ar    1  UNL1        0.0111
     25 C         142.3543  141.1055  169.6930 C.ar    1  UNL1        0.0577
     26 CL        142.0914  141.5815  171.0910 Cl      1  UNL1       -0.0822
     27 C         142.4459  139.6361  169.4058 C.ar    1  UNL1        0.0111
     28 C         142.7087  139.1601  168.0079 C.ar    1  UNL1       -0.0034
@<TRIPOS>BOND
     1     2     3    2
     2     3     4   am
     3     4     1    1
     4     1    15    1
     5    15    16    1
     6    16    17    1
     7    17    18    1
     8    18    19    1
     9    19    22    1
    10    22    23   ar
    11    23    24   ar
    12    24    25   ar
    13    25    26    1
    14    25    27   ar
    15    27    28   ar
    16    19    20    1
    17    20    21    1
    18     4     5    1
    19     5     6    1
    20     6     7    1
    21     7     8    1
    22     8     9   ar
    23     9    10   ar
    24    10    11   ar
    25    11    12   ar
    26    12    13    1
    27    12    14   ar
    28     7     3   am
    29    14     8   ar
    30    21    16    1
    31    28    22   ar
@<TRIPOS>MOLECULE
*****
 28 31 0 0 0
SMALL
GASTEIGER

@<TRIPOS>ATOM
      1 C         139.0357  138.0238  160.9208 C.3     1  UNL1        0.1123
      2 O         139.9053  141.1509  161.2601 O.2     1  UNL1       -0.2520
      3 C         140.8259  139.9682  161.3202 C.2     1  UNL1        0.3111
      4 N         140.4264  138.5308  161.1643 N.am    1  UNL1       -0.2606
      5 C         141.6613  137.6896  161.2946 C.3     1  UNL1        0.1169
      6 C         142.8243  138.6069  161.5311 C.3     1  UNL1        0.1212
      7 N         142.3080  140.0153  161.5470 N.am    1  UNL1       -0.2413
      8 C         143.1296  141.2532  161.7533 C.ar    1  UNL1        0.0562
      9 C         144.0016  141.7677  160.6465 C.ar    1  UNL1        0.0150
     10 C         144.8232  143.0056  160.8529 C.ar    1  UNL1        0.0021
     11 C         144.7726  143.7291  162.1659 C.ar    1  UNL1        0.0115
     12 C         143.9005  143.2146  163.2726 C.ar    1  UNL1        0.0589
     13 CL        143.8500  143.9380  164.5857 Cl      1  UNL1       -0.0822
     14 C         143.0790  141.9766  163.0663 C.ar    1  UNL1        0.0263
     15 C         137.9949  138.1440  161.9942 C.3     1  UNL1        0.0939
     16 N         138.3568  138.7276  163.3278 N.3     1  UNL1       -0.2712
     17 C         137.9948  140.1475  163.6483 C.3     1  UNL1        0.0725
     18 C         138.3566  140.7310  164.9819 C.3     1  UNL1        0.0217
     19 C         139.0806  139.8946  165.9950 C.3     1  UNL1        0.0251
     20 C         139.4426  138.4747  165.6745 C.3     1  UNL1        0.0217
     21 C         139.0807  137.8912  164.3410 C.3     1  UNL1        0.0725
     22 C         139.4424  140.4782  167.3287 C.ar    1  UNL1       -0.0224
     23 C         138.9522  139.8295  168.5891 C.ar    1  UNL1       -0.0034
     24 C         139.3140  140.4131  169.9228 C.ar    1  UNL1        0.0111
     25 C         140.1662  141.6454  169.9959 C.ar    1  UNL1        0.0577
     26 CL        140.5280  142.2290  171.3294 Cl      1  UNL1       -0.0822
     27 C         140.6565  142.2941  168.7353 C.ar    1  UNL1        0.0111
     28 C         140.2946  141.7105  167.4017 C.ar    1  UNL1       -0.0034
@<TRIPOS>BOND
     1     2     3    2
     2     3     4   am
     3     4     1    1
     4     1    15    1
     5    15    16    1
     6    16    17    1
     7    17    18    1
     8    18    19    1
     9    19    22    1
    10    22    23   ar
    11    23    24   ar
    12    24    25   ar
    13    25    26    1
    14    25    27   ar
    15    27    28   ar
    16    19    20    1
    17    20    21    1
    18     4     5    1
    19     5     6    1
    20     6     7    1
    21     7     8    1
    22     8     9   ar
    23     9    10   ar
    24    10    11   ar
    25    11    12   ar
    26    12    13    1
    27    12    14   ar
    28     7     3   am
    29    14     8   ar
    30    21    16    1
    31    28    22   ar
@<TRIPOS>MOLECULE
*****
 28 31 0 0 0
SMALL
GASTEIGER

@<TRIPOS>ATOM
      1 C         144.8713  142.6065  159.7583 C.3     1  UNL1        0.1123
      2 O         147.7324  143.3751  158.3899 O.2     1  UNL1       -0.2520
      3 C         146.5425  142.7992  157.6811 C.2     1  UNL1        0.3111
      4 N         145.2274  142.4459  158.3100 N.am    1  UNL1       -0.2606
      5 C         144.3309  141.9038  157.2365 C.3     1  UNL1        0.1169
      6 C         145.0919  141.9220  155.9440 C.3     1  UNL1        0.1212
      7 N         146.4588  142.4754  156.2187 N.am    1  UNL1       -0.2413
      8 C         147.5503  142.6708  155.2086 C.ar    1  UNL1        0.0562
      9 C         147.3963  143.6991  154.1274 C.ar    1  UNL1        0.0150
     10 C         148.4878  143.8944  153.1172 C.ar    1  UNL1        0.0021
     11 C         149.7333  143.0615  153.1882 C.ar    1  UNL1        0.0115
     12 C         149.8872  142.0332  154.2694 C.ar    1  UNL1        0.0589
     13 CL        151.1327  141.2003  154.3404 Cl      1  UNL1       -0.0822
     14 C         148.7958  141.8379  155.2796 C.ar    1  UNL1        0.0263
     15 C         143.6260  141.9692  160.2996 C.3     1  UNL1        0.0939
     16 N         143.4766  141.7497  161.7760 N.3     1  UNL1       -0.2712
     17 C         142.1630  142.0244  162.4460 C.3     1  UNL1        0.0725
     18 C         142.0137  141.8049  163.9222 C.3     1  UNL1        0.0217
     19 C         143.1780  141.3107  164.7286 C.3     1  UNL1        0.0251
     20 C         144.4917  141.0360  164.0586 C.3     1  UNL1        0.0217
     21 C         144.6409  141.2555  162.5823 C.3     1  UNL1        0.0725
     22 C         143.0287  141.0912  166.2049 C.ar    1  UNL1       -0.0224
     23 C         143.1603  142.2468  167.1521 C.ar    1  UNL1       -0.0034
     24 C         143.0109  142.0273  168.6284 C.ar    1  UNL1        0.0111
     25 C         142.7300  140.6522  169.1576 C.ar    1  UNL1        0.0577
     26 CL        142.5806  140.4326  170.6339 Cl      1  UNL1       -0.0822
     27 C         142.5984  139.4965  168.2103 C.ar    1  UNL1        0.0111
     28 C         142.7477  139.7160  166.7341 C.ar    1  UNL1       -0.0034
@<TRIPOS>BOND
     1     2     3    2
     2     3     4   am
     3     4     1    1
     4     1    15    1
     5    15    16    1
     6    16    17    1
     7    17    18    1
     8    18    19    1
     9    19    22    1
    10    22    23   ar
    11    23    24   ar
    12    24    25   ar
    13    25    26    1
    14    25    27   ar
    15    27    28   ar
    16    19    20    1
    17    20    21    1
    18     4     5    1
    19     5     6    1
    20     6     7    1
    21     7     8    1
    22     8     9   ar
    23     9    10   ar
    24    10    11   ar
    25    11    12   ar
    26    12    13    1
    27    12    14   ar
    28     7     3   am
    29    14     8   ar
    30    21    16    1
    31    28    22   ar
