@<TRIPOS>MOLECULE
*****
 41 45 0 0 0
SMALL
GASTEIGER

@<TRIPOS>ATOM
      1 C         142.6024  144.2326  162.6042 C.2     1  UNL1        0.2251
      2 O         143.7084  145.1748  162.9771 O.2     1  UNL1       -0.2749
      3 N         142.1787  143.1574  163.5605 N.am    1  UNL1       -0.2794
      4 C         141.0727  142.2153  163.1877 C.3     1  UNL1        0.0954
      5 C         140.6490  141.1401  164.1440 C.3     1  UNL1        0.0440
      6 C         141.3313  141.0071  165.4732 C.3     1  UNL1        0.0825
      7 C         142.4374  141.9493  165.8460 C.3     1  UNL1        0.0440
      8 C         142.8611  143.0244  164.8897 C.3     1  UNL1        0.0954
      9 C         140.5553  144.6315  158.6167 C.3     1  UNL1        0.0542
     10 C         141.7283  143.7090  158.7686 C.3     1  UNL1        0.0162
     11 C         142.4106  143.5760  160.0978 C.3     1  UNL1        0.0104
     12 C         141.9200  144.3655  161.2751 C.3     1  UNL1        0.0768
     13 C         140.7470  145.2881  161.1232 C.3     1  UNL1        0.0095
     14 C         139.6826  146.2846  161.4753 C.3     1  UNL1        0.0005
     15 C         141.0597  145.5012  162.5746 C.3     1  UNL1        0.0005
     16 C         140.0646  145.4211  159.7940 C.3     1  UNL1        0.0162
     17 N         139.8730  144.7645  157.2875 N.3     1  UNL1       -0.2962
     18 H         139.8316  143.8291  156.8829 H       1  UNL1        0.1235
     19 C         140.4484  145.6662  156.2360 C.3     1  UNL1        0.0768
     20 C         141.6147  145.2080  155.4116 C.3     1  UNL1        0.0220
     21 C         138.6756  149.7457  155.5544 C.ar    1  UNL1        0.1387
     22 C         138.4177  149.0215  156.8425 C.ar    1  UNL1        0.0366
     23 C         139.0087  147.6617  157.0696 C.ar    1  UNL1        0.0001
     24 C         139.8574  147.0260  156.0088 C.ar    1  UNL1       -0.0078
     25 C         140.1153  147.7502  154.7208 C.ar    1  UNL1        0.0001
     26 C         139.5243  149.1100  154.4936 C.ar    1  UNL1        0.0366
     27 C         138.8415  152.1293  154.5341 C.3     1  UNL1        0.2525
     28 O         138.0846  151.1056  155.3273 O.3     1  UNL1       -0.4714
     29 N         140.3431  139.8832  165.5741 N.am    1  UNL1       -0.2791
     30 C         139.1130  140.0397  166.4181 C.3     1  UNL1        0.0936
     31 C         138.1247  138.9158  166.5191 C.3     1  UNL1        0.0220
     32 C         138.3666  137.6355  165.7760 C.3     1  UNL1        0.0113
     33 C         139.5967  137.4790  164.9319 C.3     1  UNL1        0.0853
     34 C         140.5849  138.6029  164.8310 C.2     1  UNL1        0.2258
     35 O         141.8151  138.4464  163.9870 O.2     1  UNL1       -0.2749
     36 C         141.6705  140.4838  166.8374 C.ar    1  UNL1       -0.0060
     37 C         142.6419  139.3506  166.9858 C.ar    1  UNL1       -0.0027
     38 C         142.9811  138.8273  168.3501 C.ar    1  UNL1       -0.0003
     39 C         142.3488  139.4372  169.5659 C.ar    1  UNL1       -0.0000
     40 C         141.3774  140.5704  169.4174 C.ar    1  UNL1       -0.0003
     41 C         141.0382  141.0938  168.0532 C.ar    1  UNL1       -0.0027
@<TRIPOS>BOND
     1    27    28    1
     2    28    21    1
     3    21    22   ar
     4    22    23   ar
     5    23    24   ar
     6    24    19    1
     7    19    20    1
     8    19    17    1
     9     9    17    1
    10     9    10    1
    11    10    11    1
    12    11    12    1
    13    12     1    1
    14     1     2    2
    15     1     3   am
    16     3     4    1
    17     4     5    1
    18     5     6    1
    19     6    36    1
    20    36    37   ar
    21    37    38   ar
    22    38    39   ar
    23    39    40   ar
    24    40    41   ar
    25     6    29    1
    26    29    30    1
    27    30    31    1
    28    31    32    1
    29    32    33    1
    30    33    34    1
    31    34    35    2
    32     6     7    1
    33     7     8    1
    34    12    13    1
    35    13    14    1
    36    13    15    1
    37    13    16    1
    38    24    25   ar
    39    25    26   ar
    40    26    21   ar
    41    16     9    1
    42     8     3    1
    43    41    36   ar
    44    34    29   am
    45    17    18    1
@<TRIPOS>MOLECULE
*****
 41 45 0 0 0
SMALL
GASTEIGER

@<TRIPOS>ATOM
      1 C         142.6861  144.2219  163.1791 C.2     1  UNL1        0.2251
      2 O         143.7264  145.1841  163.6711 O.2     1  UNL1       -0.2749
      3 N         142.1986  143.1218  164.0748 N.am    1  UNL1       -0.2794
      4 C         141.1584  142.1596  163.5828 C.3     1  UNL1        0.0954
      5 C         140.6709  141.0595  164.4785 C.3     1  UNL1        0.0440
      6 C         141.2236  140.9216  165.8661 C.3     1  UNL1        0.0825
      7 C         142.2639  141.8839  166.3580 C.3     1  UNL1        0.0440
      8 C         142.7514  142.9840  165.4624 C.3     1  UNL1        0.0954
      9 C         141.0279  144.6354  159.0163 C.3     1  UNL1        0.0542
     10 C         142.2110  143.7483  159.2676 C.3     1  UNL1        0.0162
     11 C         142.7638  143.6105  160.6552 C.3     1  UNL1        0.0104
     12 C         142.1334  144.3597  161.7915 C.3     1  UNL1        0.0768
     13 C         140.9501  145.2468  161.5402 C.3     1  UNL1        0.0095
     14 C         139.8230  146.2012  161.8024 C.3     1  UNL1        0.0005
     15 C         141.1114  145.4404  163.0188 C.3     1  UNL1        0.0005
     16 C         140.3974  145.3847  160.1526 C.3     1  UNL1        0.0162
     17 N         140.4752  144.7732  157.6287 N.3     1  UNL1       -0.2962
     18 H         139.9208  145.6294  157.6162 H       1  UNL1        0.1235
     19 C         139.6114  143.6897  157.0544 C.3     1  UNL1        0.0768
     20 C         138.8524  143.9304  155.7832 C.3     1  UNL1        0.0220
     21 C         139.2971  139.7173  159.1450 C.ar    1  UNL1        0.1387
     22 C         138.4291  140.8623  159.5758 C.ar    1  UNL1        0.0366
     23 C         138.5339  142.1864  158.8789 C.ar    1  UNL1        0.0001
     24 C         139.5066  142.3656  157.7512 C.ar    1  UNL1       -0.0078
     25 C         140.3745  141.2206  157.3204 C.ar    1  UNL1        0.0001
     26 C         140.2698  139.8964  158.0173 C.ar    1  UNL1        0.0366
     27 C         139.5175  138.2864  161.3023 C.3     1  UNL1        0.2525
     28 O         139.1923  138.3931  159.8419 O.3     1  UNL1       -0.4714
     29 N         140.2590  139.7730  165.8546 N.am    1  UNL1       -0.2791
     30 C         138.9402  139.8941  166.5589 C.3     1  UNL1        0.0936
     31 C         137.9756  138.7455  166.5474 C.3     1  UNL1        0.0220
     32 C         138.3298  137.4758  165.8317 C.3     1  UNL1        0.0113
     33 C         139.6486  137.3546  165.1275 C.3     1  UNL1        0.0853
     34 C         140.6132  138.5033  165.1389 C.2     1  UNL1        0.2258
     35 O         141.9321  138.3821  164.4346 O.2     1  UNL1       -0.2749
     36 C         141.4414  140.3849  167.2497 C.ar    1  UNL1       -0.0060
     37 C         140.5274  140.7956  168.3659 C.ar    1  UNL1       -0.0027
     38 C         140.7452  140.2588  169.7496 C.ar    1  UNL1       -0.0003
     39 C         141.8768  139.3114  170.0170 C.ar    1  UNL1       -0.0000
     40 C         142.7908  138.9007  168.9008 C.ar    1  UNL1       -0.0003
     41 C         142.5731  139.4374  167.5171 C.ar    1  UNL1       -0.0027
@<TRIPOS>BOND
     1    27    28    1
     2    28    21    1
     3    21    22   ar
     4    22    23   ar
     5    23    24   ar
     6    24    19    1
     7    19    20    1
     8    19    17    1
     9     9    17    1
    10     9    10    1
    11    10    11    1
    12    11    12    1
    13    12     1    1
    14     1     2    2
    15     1     3   am
    16     3     4    1
    17     4     5    1
    18     5     6    1
    19     6    36    1
    20    36    37   ar
    21    37    38   ar
    22    38    39   ar
    23    39    40   ar
    24    40    41   ar
    25     6    29    1
    26    29    30    1
    27    30    31    1
    28    31    32    1
    29    32    33    1
    30    33    34    1
    31    34    35    2
    32     6     7    1
    33     7     8    1
    34    12    13    1
    35    13    14    1
    36    13    15    1
    37    13    16    1
    38    24    25   ar
    39    25    26   ar
    40    26    21   ar
    41    16     9    1
    42     8     3    1
    43    41    36   ar
    44    34    29   am
    45    17    18    1
@<TRIPOS>MOLECULE
*****
 41 45 0 0 0
SMALL
GASTEIGER

@<TRIPOS>ATOM
      1 C         142.9881  143.9275  162.2714 C.2     1  UNL1        0.2251
      2 O         144.1024  144.8644  162.6333 O.2     1  UNL1       -0.2749
      3 N         142.4722  142.9490  163.2845 N.am    1  UNL1       -0.2794
      4 C         141.3580  142.0123  162.9226 C.3     1  UNL1        0.0954
      5 C         140.8420  141.0337  163.9357 C.3     1  UNL1        0.0440
      6 C         141.4402  140.9920  165.3106 C.3     1  UNL1        0.0825
      7 C         142.5545  141.9288  165.6724 C.3     1  UNL1        0.0440
      8 C         143.0704  142.9073  164.6594 C.3     1  UNL1        0.0954
      9 C         141.1934  144.0526  158.1467 C.3     1  UNL1        0.0542
     10 C         140.5141  144.7595  159.2820 C.3     1  UNL1        0.0162
     11 C         141.1123  144.7178  160.6569 C.3     1  UNL1        0.0104
     12 C         142.3899  143.9692  160.8965 C.3     1  UNL1        0.0768
     13 C         143.0693  143.2623  159.7612 C.3     1  UNL1        0.0095
     14 C         144.0780  142.4421  159.0132 C.3     1  UNL1        0.0005
     15 C         144.0178  142.9358  160.8763 C.3     1  UNL1        0.0005
     16 C         142.4710  143.3040  158.3863 C.3     1  UNL1        0.0162
     17 N         140.5952  144.0944  156.7718 N.3     1  UNL1       -0.2962
     18 H         140.7669  143.1825  156.3482 H       1  UNL1        0.1235
     19 C         141.0566  145.1245  155.7840 C.3     1  UNL1        0.0768
     20 C         142.2416  144.8454  154.9078 C.3     1  UNL1        0.0220
     21 C         138.8861  149.0522  155.4494 C.ar    1  UNL1        0.1387
     22 C         139.6778  148.5314  154.2867 C.ar    1  UNL1        0.0366
     23 C         140.4013  147.2221  154.3983 C.ar    1  UNL1        0.0001
     24 C         140.3331  146.4337  155.6725 C.ar    1  UNL1       -0.0078
     25 C         139.5414  146.9546  156.8352 C.ar    1  UNL1        0.0001
     26 C         138.8179  148.2638  156.7237 C.ar    1  UNL1        0.0366
     27 C         138.8147  151.6224  155.8223 C.3     1  UNL1        0.2525
     28 O         138.1626  150.3614  155.3379 O.3     1  UNL1       -0.4714
     29 N         140.4095  139.9102  165.4421 N.am    1  UNL1       -0.2791
     30 C         139.1253  140.1821  166.1682 C.3     1  UNL1        0.0936
     31 C         138.0946  139.1004  166.2997 C.3     1  UNL1        0.0220
     32 C         138.3479  137.7468  165.7051 C.3     1  UNL1        0.0113
     33 C         139.6320  137.4749  164.9790 C.3     1  UNL1        0.0853
     34 C         140.6628  138.5566  164.8476 C.2     1  UNL1        0.2258
     35 O         141.9469  138.2847  164.1215 O.2     1  UNL1       -0.2749
     36 C         141.6805  140.5746  166.7311 C.ar    1  UNL1       -0.0060
     37 C         140.9634  141.2716  167.8492 C.ar    1  UNL1       -0.0027
     38 C         141.2037  140.8542  169.2698 C.ar    1  UNL1       -0.0003
     39 C         142.1610  139.7398  169.5724 C.ar    1  UNL1       -0.0000
     40 C         142.8781  139.0429  168.4543 C.ar    1  UNL1       -0.0003
     41 C         142.6379  139.4602  167.0337 C.ar    1  UNL1       -0.0027
@<TRIPOS>BOND
     1    27    28    1
     2    28    21    1
     3    21    22   ar
     4    22    23   ar
     5    23    24   ar
     6    24    19    1
     7    19    20    1
     8    19    17    1
     9     9    17    1
    10     9    10    1
    11    10    11    1
    12    11    12    1
    13    12     1    1
    14     1     2    2
    15     1     3   am
    16     3     4    1
    17     4     5    1
    18     5     6    1
    19     6    36    1
    20    36    37   ar
    21    37    38   ar
    22    38    39   ar
    23    39    40   ar
    24    40    41   ar
    25     6    29    1
    26    29    30    1
    27    30    31    1
    28    31    32    1
    29    32    33    1
    30    33    34    1
    31    34    35    2
    32     6     7    1
    33     7     8    1
    34    12    13    1
    35    13    14    1
    36    13    15    1
    37    13    16    1
    38    24    25   ar
    39    25    26   ar
    40    26    21   ar
    41    16     9    1
    42     8     3    1
    43    41    36   ar
    44    34    29   am
    45    17    18    1
@<TRIPOS>MOLECULE
*****
 41 45 0 0 0
SMALL
GASTEIGER

@<TRIPOS>ATOM
      1 C         142.6962  144.2184  163.1534 C.2     1  UNL1        0.2251
      2 O         143.7503  145.1697  163.6374 O.2     1  UNL1       -0.2749
      3 N         142.2197  143.1101  164.0447 N.am    1  UNL1       -0.2794
      4 C         141.1657  142.1590  163.5607 C.3     1  UNL1        0.0954
      5 C         140.6892  141.0506  164.4521 C.3     1  UNL1        0.0440
      6 C         141.2668  140.8935  165.8275 C.3     1  UNL1        0.0825
      7 C         142.3208  141.8447  166.3115 C.3     1  UNL1        0.0440
      8 C         142.7973  142.9530  165.4201 C.3     1  UNL1        0.0954
      9 C         140.9635  144.6900  159.0272 C.3     1  UNL1        0.0542
     10 C         142.1302  143.7740  159.2505 C.3     1  UNL1        0.0162
     11 C         142.7077  143.6169  160.6259 C.3     1  UNL1        0.0104
     12 C         142.1186  144.3756  161.7780 C.3     1  UNL1        0.0768
     13 C         140.9519  145.2916  161.5546 C.3     1  UNL1        0.0095
     14 C         139.8533  146.2711  161.8438 C.3     1  UNL1        0.0005
     15 C         141.1479  145.4746  163.0304 C.3     1  UNL1        0.0005
     16 C         140.3743  145.4488  160.1792 C.3     1  UNL1        0.0162
     17 N         140.3859  144.8471  157.6518 N.3     1  UNL1       -0.2962
     18 H         139.4422  145.2159  157.7691 H       1  UNL1        0.1235
     19 C         140.2765  143.6581  156.7439 C.3     1  UNL1        0.0768
     20 C         141.4001  143.3227  155.8086 C.3     1  UNL1        0.0220
     21 C         136.5770  141.0974  156.8262 C.ar    1  UNL1        0.1387
     22 C         137.6969  140.8284  157.7872 C.ar    1  UNL1        0.0366
     23 C         138.9300  141.6820  157.7598 C.ar    1  UNL1        0.0001
     24 C         139.0433  142.8045  156.7714 C.ar    1  UNL1       -0.0078
     25 C         137.9235  143.0735  155.8104 C.ar    1  UNL1        0.0001
     26 C         136.6903  142.2200  155.8378 C.ar    1  UNL1        0.0366
     27 C         134.2499  140.4742  155.8537 C.3     1  UNL1        0.2525
     28 O         135.3439  140.2438  156.8537 O.3     1  UNL1       -0.4714
     29 N         140.2962  139.7498  165.8203 N.am    1  UNL1       -0.2791
     30 C         138.9748  139.8831  166.5175 C.3     1  UNL1        0.0936
     31 C         138.0043  138.7394  166.5103 C.3     1  UNL1        0.0220
     32 C         138.3551  137.4625  165.8058 C.3     1  UNL1        0.0113
     33 C         139.6766  137.3292  165.1086 C.3     1  UNL1        0.0853
     34 C         140.6471  138.4729  165.1158 C.2     1  UNL1        0.2258
     35 O         141.9685  138.3396  164.4186 O.2     1  UNL1       -0.2749
     36 C         141.5073  140.3391  167.2004 C.ar    1  UNL1       -0.0060
     37 C         140.6178  140.7429  168.3387 C.ar    1  UNL1       -0.0027
     38 C         140.8584  140.1885  169.7116 C.ar    1  UNL1       -0.0003
     39 C         141.9883  139.2304  169.9462 C.ar    1  UNL1       -0.0000
     40 C         142.8777  138.8266  168.8079 C.ar    1  UNL1       -0.0003
     41 C         142.6373  139.3809  167.4350 C.ar    1  UNL1       -0.0027
@<TRIPOS>BOND
     1    27    28    1
     2    28    21    1
     3    21    22   ar
     4    22    23   ar
     5    23    24   ar
     6    24    19    1
     7    19    20    1
     8    19    17    1
     9     9    17    1
    10     9    10    1
    11    10    11    1
    12    11    12    1
    13    12     1    1
    14     1     2    2
    15     1     3   am
    16     3     4    1
    17     4     5    1
    18     5     6    1
    19     6    36    1
    20    36    37   ar
    21    37    38   ar
    22    38    39   ar
    23    39    40   ar
    24    40    41   ar
    25     6    29    1
    26    29    30    1
    27    30    31    1
    28    31    32    1
    29    32    33    1
    30    33    34    1
    31    34    35    2
    32     6     7    1
    33     7     8    1
    34    12    13    1
    35    13    14    1
    36    13    15    1
    37    13    16    1
    38    24    25   ar
    39    25    26   ar
    40    26    21   ar
    41    16     9    1
    42     8     3    1
    43    41    36   ar
    44    34    29   am
    45    17    18    1
@<TRIPOS>MOLECULE
*****
 41 45 0 0 0
SMALL
GASTEIGER

@<TRIPOS>ATOM
      1 C         142.9608  144.0198  162.3617 C.2     1  UNL1        0.2251
      2 O         143.9847  145.0369  162.7705 O.2     1  UNL1       -0.2749
      3 N         142.4271  143.0458  163.3698 N.am    1  UNL1       -0.2794
      4 C         141.4032  142.0287  162.9610 C.3     1  UNL1        0.0954
      5 C         140.8695  141.0546  163.9692 C.3     1  UNL1        0.0440
      6 C         141.3596  141.0977  165.3862 C.3     1  UNL1        0.0825
      7 C         142.3836  142.1149  165.7950 C.3     1  UNL1        0.0440
      8 C         142.9173  143.0889  164.7868 C.3     1  UNL1        0.0954
      9 C         141.4902  143.8905  158.1107 C.3     1  UNL1        0.0542
     10 C         140.7162  144.6467  159.1494 C.3     1  UNL1        0.0162
     11 C         141.2064  144.6898  160.5664 C.3     1  UNL1        0.0104
     12 C         142.4706  143.9767  160.9447 C.3     1  UNL1        0.0768
     13 C         143.2447  143.2204  159.9060 C.3     1  UNL1        0.0095
     14 C         144.3185  142.3775  159.2844 C.3     1  UNL1        0.0005
     15 C         144.1078  142.9708  161.1070 C.3     1  UNL1        0.0005
     16 C         142.7545  143.1773  158.4890 C.3     1  UNL1        0.0162
     17 N         141.0000  143.8474  156.6937 N.3     1  UNL1       -0.2962
     18 H         141.6035  144.4682  156.1544 H       1  UNL1        0.1235
     19 C         139.5861  144.2354  156.3771 C.3     1  UNL1        0.0768
     20 C         139.2616  145.6533  156.0109 C.3     1  UNL1        0.0220
     21 C         136.3180  141.1455  156.5257 C.ar    1  UNL1        0.1387
     22 C         137.4945  141.0379  157.4500 C.ar    1  UNL1        0.0366
     23 C         138.5839  142.0679  157.4004 C.ar    1  UNL1        0.0001
     24 C         138.4968  143.2054  156.4266 C.ar    1  UNL1       -0.0078
     25 C         137.3203  143.3130  155.5024 C.ar    1  UNL1        0.0001
     26 C         136.2309  142.2831  155.5519 C.ar    1  UNL1        0.0366
     27 C         134.3383  139.9078  155.3861 C.3     1  UNL1        0.2525
     28 O         135.2287  140.1155  156.5753 O.3     1  UNL1       -0.4714
     29 N         140.3889  139.9581  165.4809 N.am    1  UNL1       -0.2791
     30 C         139.0624  140.1567  166.1524 C.3     1  UNL1        0.0936
     31 C         138.0916  139.0171  166.2471 C.3     1  UNL1        0.0220
     32 C         138.4474  137.6790  165.6703 C.3     1  UNL1        0.0113
     33 C         139.7739  137.4804  164.9988 C.3     1  UNL1        0.0853
     34 C         140.7447  138.6200  164.9041 C.2     1  UNL1        0.2258
     35 O         142.0712  138.4213  164.2326 O.2     1  UNL1       -0.2749
     36 C         141.5127  140.7450  166.8360 C.ar    1  UNL1       -0.0060
     37 C         140.7206  141.4821  167.8749 C.ar    1  UNL1       -0.0027
     38 C         140.8736  141.1294  169.3248 C.ar    1  UNL1       -0.0003
     39 C         141.8188  140.0397  169.7359 C.ar    1  UNL1       -0.0000
     40 C         142.6109  139.3026  168.6970 C.ar    1  UNL1       -0.0003
     41 C         142.4579  139.6552  167.2471 C.ar    1  UNL1       -0.0027
@<TRIPOS>BOND
     1    27    28    1
     2    28    21    1
     3    21    22   ar
     4    22    23   ar
     5    23    24   ar
     6    24    19    1
     7    19    20    1
     8    19    17    1
     9     9    17    1
    10     9    10    1
    11    10    11    1
    12    11    12    1
    13    12     1    1
    14     1     2    2
    15     1     3   am
    16     3     4    1
    17     4     5    1
    18     5     6    1
    19     6    36    1
    20    36    37   ar
    21    37    38   ar
    22    38    39   ar
    23    39    40   ar
    24    40    41   ar
    25     6    29    1
    26    29    30    1
    27    30    31    1
    28    31    32    1
    29    32    33    1
    30    33    34    1
    31    34    35    2
    32     6     7    1
    33     7     8    1
    34    12    13    1
    35    13    14    1
    36    13    15    1
    37    13    16    1
    38    24    25   ar
    39    25    26   ar
    40    26    21   ar
    41    16     9    1
    42     8     3    1
    43    41    36   ar
    44    34    29   am
    45    17    18    1
@<TRIPOS>MOLECULE
*****
 41 45 0 0 0
SMALL
GASTEIGER

@<TRIPOS>ATOM
      1 C         140.6008  144.2590  161.7023 C.2     1  UNL1        0.2251
      2 O         141.5262  145.2646  162.3207 O.2     1  UNL1       -0.2749
      3 N         140.3216  144.3030  160.2292 N.am    1  UNL1       -0.2794
      4 C         139.3963  143.2973  159.6109 C.3     1  UNL1        0.0954
      5 C         139.1171  143.3413  158.1377 C.3     1  UNL1        0.0440
      6 C         139.7633  144.3910  157.2829 C.3     1  UNL1        0.0825
      7 C         140.6887  145.3966  157.9013 C.3     1  UNL1        0.0440
      8 C         140.9678  145.3526  159.3744 C.3     1  UNL1        0.0954
      9 C         138.6622  141.1100  164.2666 C.3     1  UNL1        0.0542
     10 C         139.8066  140.7455  163.3681 C.3     1  UNL1        0.0162
     11 C         140.4528  141.7952  162.5133 C.3     1  UNL1        0.0104
     12 C         139.9546  143.2093  162.5571 C.3     1  UNL1        0.0768
     13 C         138.8101  143.5738  163.4556 C.3     1  UNL1        0.0095
     14 C         137.7638  144.4028  164.1398 C.3     1  UNL1        0.0005
     15 C         139.0929  144.9114  162.8385 C.3     1  UNL1        0.0005
     16 C         138.1639  142.5242  164.3104 C.3     1  UNL1        0.0162
     17 N         138.0160  140.0603  165.1214 N.3     1  UNL1       -0.2962
     18 H         137.5158  140.5511  165.8626 H       1  UNL1        0.1235
     19 C         138.8578  139.0126  165.7874 C.3     1  UNL1        0.0768
     20 C         138.6327  137.5621  165.4790 C.3     1  UNL1        0.0220
     21 C         142.0586  140.2212  168.7104 C.ar    1  UNL1        0.1387
     22 C         140.6159  140.2621  169.1187 C.ar    1  UNL1        0.0366
     23 C         139.5490  139.8592  168.1444 C.ar    1  UNL1        0.0001
     24 C         139.9248  139.4155  166.7617 C.ar    1  UNL1       -0.0078
     25 C         141.3675  139.3746  166.3534 C.ar    1  UNL1        0.0001
     26 C         142.4344  139.7775  167.3277 C.ar    1  UNL1        0.0366
     27 C         143.6375  142.0340  169.6958 C.3     1  UNL1        0.2525
     28 O         143.1256  140.6241  169.6848 O.3     1  UNL1       -0.4714
     29 N         138.9662  143.6619  156.2422 N.am    1  UNL1       -0.2791
     30 C         137.7125  144.2748  155.6921 C.3     1  UNL1        0.0936
     31 C         136.9154  143.5457  154.6514 C.3     1  UNL1        0.0220
     32 C         137.3720  142.2038  154.1607 C.3     1  UNL1        0.0113
     33 C         138.6257  141.5909  154.7108 C.3     1  UNL1        0.0853
     34 C         139.4228  142.3200  155.7515 C.2     1  UNL1        0.2258
     35 O         140.6766  141.7071  156.3016 O.2     1  UNL1       -0.2749
     36 C         140.1327  145.1874  156.0667 C.ar    1  UNL1       -0.0060
     37 C         139.4549  146.4974  155.7938 C.ar    1  UNL1       -0.0027
     38 C         139.8243  147.2939  154.5775 C.ar    1  UNL1       -0.0003
     39 C         140.8714  146.7804  153.6343 C.ar    1  UNL1       -0.0000
     40 C         141.5491  145.4704  153.9072 C.ar    1  UNL1       -0.0003
     41 C         141.1798  144.6739  155.1234 C.ar    1  UNL1       -0.0027
@<TRIPOS>BOND
     1    27    28    1
     2    28    21    1
     3    21    22   ar
     4    22    23   ar
     5    23    24   ar
     6    24    19    1
     7    19    20    1
     8    19    17    1
     9     9    17    1
    10     9    10    1
    11    10    11    1
    12    11    12    1
    13    12     1    1
    14     1     2    2
    15     1     3   am
    16     3     4    1
    17     4     5    1
    18     5     6    1
    19     6    36    1
    20    36    37   ar
    21    37    38   ar
    22    38    39   ar
    23    39    40   ar
    24    40    41   ar
    25     6    29    1
    26    29    30    1
    27    30    31    1
    28    31    32    1
    29    32    33    1
    30    33    34    1
    31    34    35    2
    32     6     7    1
    33     7     8    1
    34    12    13    1
    35    13    14    1
    36    13    15    1
    37    13    16    1
    38    24    25   ar
    39    25    26   ar
    40    26    21   ar
    41    16     9    1
    42     8     3    1
    43    41    36   ar
    44    34    29   am
    45    17    18    1
@<TRIPOS>MOLECULE
*****
 41 45 0 0 0
SMALL
GASTEIGER

@<TRIPOS>ATOM
      1 C         140.1570  144.7669  161.8982 C.2     1  UNL1        0.2251
      2 O         139.9187  146.2377  161.7252 O.2     1  UNL1       -0.2749
      3 N         140.2507  143.8757  160.6953 N.am    1  UNL1       -0.2794
      4 C         140.4890  142.4049  160.8683 C.3     1  UNL1        0.0954
      5 C         140.5827  141.5137  159.6654 C.3     1  UNL1        0.0440
      6 C         140.4380  142.0933  158.2894 C.3     1  UNL1        0.0825
      7 C         140.1997  143.5641  158.1165 C.3     1  UNL1        0.0440
      8 C         140.1060  144.4553  159.3194 C.3     1  UNL1        0.0954
      9 C         140.5909  143.0281  166.0259 C.3     1  UNL1        0.0542
     10 C         141.7993  143.2016  165.1543 C.3     1  UNL1        0.0162
     11 C         141.6546  143.7812  163.7784 C.3     1  UNL1        0.0104
     12 C         140.3016  144.1873  163.2741 C.3     1  UNL1        0.0768
     13 C         139.0932  144.0138  164.1457 C.3     1  UNL1        0.0095
     14 C         137.6619  144.0454  164.5934 C.3     1  UNL1        0.0005
     15 C         138.4515  144.6044  162.9253 C.3     1  UNL1        0.0005
     16 C         139.2378  143.4342  165.5216 C.3     1  UNL1        0.0162
     17 N         140.7355  142.4485  167.4018 N.3     1  UNL1       -0.2962
     18 H         141.6810  142.6674  167.7157 H       1  UNL1        0.1235
     19 C         140.5362  140.9780  167.6210 C.3     1  UNL1        0.0768
     20 C         140.6520  140.4031  169.0016 C.3     1  UNL1        0.0220
     21 C         139.5904  138.2916  164.1369 C.ar    1  UNL1        0.1387
     22 C         138.4788  138.9400  164.9074 C.ar    1  UNL1        0.0366
     23 C         138.7940  139.8355  166.0688 C.ar    1  UNL1        0.0001
     24 C         140.2209  140.0826  166.4596 C.ar    1  UNL1       -0.0078
     25 C         141.3326  139.4342  165.6891 C.ar    1  UNL1        0.0001
     26 C         141.0174  138.5387  164.5278 C.ar    1  UNL1        0.0366
     27 C         139.2100  137.9623  161.5880 C.3     1  UNL1        0.2525
     28 O         139.2752  137.3962  162.9755 O.3     1  UNL1       -0.4714
     29 N         140.6519  140.6496  157.9428 N.am    1  UNL1       -0.2791
     30 C         141.9934  140.1855  157.4579 C.3     1  UNL1        0.0936
     31 C         142.2073  138.7419  157.1113 C.3     1  UNL1        0.0220
     32 C         141.0797  137.7624  157.2496 C.3     1  UNL1        0.0113
     33 C         139.7382  138.2265  157.7345 C.3     1  UNL1        0.0853
     34 C         139.5244  139.6701  158.0811 C.2     1  UNL1        0.2258
     35 O         138.1829  140.1342  158.5660 O.2     1  UNL1       -0.2749
     36 C         140.3677  142.1715  156.7932 C.ar    1  UNL1       -0.0060
     37 C         141.5888  142.5381  156.0031 C.ar    1  UNL1       -0.0027
     38 C         141.5185  142.6164  154.5067 C.ar    1  UNL1       -0.0003
     39 C         140.2270  142.3280  153.8005 C.ar    1  UNL1       -0.0000
     40 C         139.0058  141.9614  154.5907 C.ar    1  UNL1       -0.0003
     41 C         139.0761  141.8832  156.0870 C.ar    1  UNL1       -0.0027
@<TRIPOS>BOND
     1    27    28    1
     2    28    21    1
     3    21    22   ar
     4    22    23   ar
     5    23    24   ar
     6    24    19    1
     7    19    20    1
     8    19    17    1
     9     9    17    1
    10     9    10    1
    11    10    11    1
    12    11    12    1
    13    12     1    1
    14     1     2    2
    15     1     3   am
    16     3     4    1
    17     4     5    1
    18     5     6    1
    19     6    36    1
    20    36    37   ar
    21    37    38   ar
    22    38    39   ar
    23    39    40   ar
    24    40    41   ar
    25     6    29    1
    26    29    30    1
    27    30    31    1
    28    31    32    1
    29    32    33    1
    30    33    34    1
    31    34    35    2
    32     6     7    1
    33     7     8    1
    34    12    13    1
    35    13    14    1
    36    13    15    1
    37    13    16    1
    38    24    25   ar
    39    25    26   ar
    40    26    21   ar
    41    16     9    1
    42     8     3    1
    43    41    36   ar
    44    34    29   am
    45    17    18    1
@<TRIPOS>MOLECULE
*****
 41 45 0 0 0
SMALL
GASTEIGER

@<TRIPOS>ATOM
      1 C         143.4382  139.5140  160.6007 C.2     1  UNL1        0.2251
      2 O         144.1152  138.1808  160.7209 O.2     1  UNL1       -0.2749
      3 N         142.4646  139.9582  161.6517 N.am    1  UNL1       -0.2794
      4 C         141.7876  141.2913  161.5315 C.3     1  UNL1        0.0954
      5 C         140.8140  141.7356  162.5825 C.3     1  UNL1        0.0440
      6 C         140.5173  140.8467  163.7538 C.3     1  UNL1        0.0825
      7 C         141.1943  139.5136  163.8740 C.3     1  UNL1        0.0440
      8 C         142.1679  139.0693  162.8230 C.3     1  UNL1        0.0954
      9 C         144.3282  142.1807  157.0869 C.3     1  UNL1        0.0542
     10 C         144.8464  142.5366  158.4488 C.3     1  UNL1        0.0162
     11 C         144.5498  141.6477  159.6201 C.3     1  UNL1        0.0104
     12 C         143.7349  140.4029  159.4295 C.3     1  UNL1        0.0768
     13 C         143.2166  140.0469  158.0675 C.3     1  UNL1        0.0095
     14 C         142.5102  139.2912  156.9814 C.3     1  UNL1        0.0005
     15 C         142.6746  138.8956  158.8616 C.3     1  UNL1        0.0005
     16 C         143.5133  140.9358  156.8963 C.3     1  UNL1        0.0162
     17 N         144.6249  143.0696  155.9157 N.3     1  UNL1       -0.2962
     18 H         143.7437  143.5081  155.6482 H       1  UNL1        0.1235
     19 C         145.2172  142.4900  154.6654 C.3     1  UNL1        0.0768
     20 C         144.3332  142.1629  153.4986 C.3     1  UNL1        0.0220
     21 C         149.6459  141.7328  154.4149 C.ar    1  UNL1        0.1387
     22 C         148.9800  141.8524  155.7536 C.ar    1  UNL1        0.0366
     23 C         147.5038  142.1048  155.8371 C.ar    1  UNL1        0.0001
     24 C         146.6934  142.2376  154.5819 C.ar    1  UNL1       -0.0078
     25 C         147.3593  142.1180  153.2431 C.ar    1  UNL1        0.0001
     26 C         148.8355  141.8656  153.1596 C.ar    1  UNL1        0.0366
     27 C         152.0786  142.6346  154.2788 C.3     1  UNL1        0.2525
     28 O         151.1222  141.4804  154.3313 O.3     1  UNL1       -0.4714
     29 N         139.6303  142.0117  164.0796 N.am    1  UNL1       -0.2791
     30 C         140.0713  143.0312  165.0876 C.3     1  UNL1        0.0936
     31 C         139.1844  144.1962  165.4135 C.3     1  UNL1        0.0220
     32 C         137.8564  144.3416  164.7313 C.3     1  UNL1        0.0113
     33 C         137.4154  143.3220  163.7233 C.3     1  UNL1        0.0853
     34 C         138.3024  142.1571  163.3975 C.2     1  UNL1        0.2258
     35 O         137.8613  141.1375  162.3895 O.2     1  UNL1       -0.2749
     36 C         139.9126  140.3624  165.0382 C.ar    1  UNL1       -0.0060
     37 C         140.5677  140.6918  166.3467 C.ar    1  UNL1       -0.0027
     38 C         139.9630  140.2075  167.6312 C.ar    1  UNL1       -0.0003
     39 C         138.7032  139.3938  167.6071 C.ar    1  UNL1       -0.0000
     40 C         138.0481  139.0644  166.2986 C.ar    1  UNL1       -0.0003
     41 C         138.6527  139.5487  165.0141 C.ar    1  UNL1       -0.0027
@<TRIPOS>BOND
     1    27    28    1
     2    28    21    1
     3    21    22   ar
     4    22    23   ar
     5    23    24   ar
     6    24    19    1
     7    19    20    1
     8    19    17    1
     9     9    17    1
    10     9    10    1
    11    10    11    1
    12    11    12    1
    13    12     1    1
    14     1     2    2
    15     1     3   am
    16     3     4    1
    17     4     5    1
    18     5     6    1
    19     6    36    1
    20    36    37   ar
    21    37    38   ar
    22    38    39   ar
    23    39    40   ar
    24    40    41   ar
    25     6    29    1
    26    29    30    1
    27    30    31    1
    28    31    32    1
    29    32    33    1
    30    33    34    1
    31    34    35    2
    32     6     7    1
    33     7     8    1
    34    12    13    1
    35    13    14    1
    36    13    15    1
    37    13    16    1
    38    24    25   ar
    39    25    26   ar
    40    26    21   ar
    41    16     9    1
    42     8     3    1
    43    41    36   ar
    44    34    29   am
    45    17    18    1
@<TRIPOS>MOLECULE
*****
 41 45 0 0 0
SMALL
GASTEIGER

@<TRIPOS>ATOM
      1 C         143.5455  138.6998  161.6849 C.2     1  UNL1        0.2251
      2 O         144.3389  137.4649  161.3756 O.2     1  UNL1       -0.2749
      3 N         143.2296  139.6809  160.5951 N.am    1  UNL1       -0.2794
      4 C         142.4362  140.9157  160.9044 C.3     1  UNL1        0.0954
      5 C         142.1203  141.8968  159.8145 C.3     1  UNL1        0.0440
      6 C         142.5979  141.6430  158.4154 C.3     1  UNL1        0.0825
      7 C         143.3914  140.4082  158.1062 C.3     1  UNL1        0.0440
      8 C         143.7072  139.4271  159.1960 C.3     1  UNL1        0.0954
      9 C         142.1128  139.4611  165.8823 C.3     1  UNL1        0.0542
     10 C         143.3290  140.1702  165.3647 C.3     1  UNL1        0.0162
     11 C         143.8066  139.9164  163.9656 C.3     1  UNL1        0.0104
     12 C         143.0679  138.9536  163.0840 C.3     1  UNL1        0.0768
     13 C         141.8516  138.2444  163.6015 C.3     1  UNL1        0.0095
     14 C         140.6571  137.3379  163.6375 C.3     1  UNL1        0.0005
     15 C         141.9143  137.6759  162.2150 C.3     1  UNL1        0.0005
     16 C         141.3740  138.4982  165.0007 C.3     1  UNL1        0.0162
     17 N         141.6352  139.7149  167.2814 N.3     1  UNL1       -0.2962
     18 H         141.5831  138.8072  167.7439 H       1  UNL1        0.1235
     19 C         140.3184  140.3949  167.5127 C.3     1  UNL1        0.0768
     20 C         139.5546  140.1398  168.7782 C.3     1  UNL1        0.0220
     21 C         138.6590  143.2000  164.4098 C.ar    1  UNL1        0.1387
     22 C         138.1327  141.7992  164.5126 C.ar    1  UNL1        0.0366
     23 C         138.6858  140.8641  165.5469 C.ar    1  UNL1        0.0001
     24 C         139.7652  141.3299  166.4784 C.ar    1  UNL1       -0.0078
     25 C         140.2916  142.7307  166.3756 C.ar    1  UNL1        0.0001
     26 C         139.7385  143.6658  165.3413 C.ar    1  UNL1        0.0366
     27 C         139.0154  145.0989  162.6728 C.3     1  UNL1        0.2525
     28 O         138.1059  144.1351  163.3755 O.3     1  UNL1       -0.4714
     29 N         141.8843  142.9470  158.2146 N.am    1  UNL1       -0.2791
     30 C         142.6686  144.2192  158.0862 C.3     1  UNL1        0.0936
     31 C         141.9549  145.5232  157.8854 C.3     1  UNL1        0.0220
     32 C         140.4571  145.5550  157.8130 C.3     1  UNL1        0.0113
     33 C         139.6727  144.2828  157.9414 C.3     1  UNL1        0.0853
     34 C         140.3864  142.9788  158.1422 C.2     1  UNL1        0.2258
     35 O         139.6021  141.7066  158.2707 O.2     1  UNL1       -0.2749
     36 C         142.8276  141.8421  156.9466 C.ar    1  UNL1       -0.0060
     37 C         144.0911  142.4927  156.4665 C.ar    1  UNL1       -0.0027
     38 C         144.3208  142.6917  154.9976 C.ar    1  UNL1       -0.0003
     39 C         143.2872  142.2404  154.0088 C.ar    1  UNL1       -0.0000
     40 C         142.0237  141.5898  154.4890 C.ar    1  UNL1       -0.0003
     41 C         141.7939  141.3907  155.9578 C.ar    1  UNL1       -0.0027
@<TRIPOS>BOND
     1    27    28    1
     2    28    21    1
     3    21    22   ar
     4    22    23   ar
     5    23    24   ar
     6    24    19    1
     7    19    20    1
     8    19    17    1
     9     9    17    1
    10     9    10    1
    11    10    11    1
    12    11    12    1
    13    12     1    1
    14     1     2    2
    15     1     3   am
    16     3     4    1
    17     4     5    1
    18     5     6    1
    19     6    36    1
    20    36    37   ar
    21    37    38   ar
    22    38    39   ar
    23    39    40   ar
    24    40    41   ar
    25     6    29    1
    26    29    30    1
    27    30    31    1
    28    31    32    1
    29    32    33    1
    30    33    34    1
    31    34    35    2
    32     6     7    1
    33     7     8    1
    34    12    13    1
    35    13    14    1
    36    13    15    1
    37    13    16    1
    38    24    25   ar
    39    25    26   ar
    40    26    21   ar
    41    16     9    1
    42     8     3    1
    43    41    36   ar
    44    34    29   am
    45    17    18    1
