@<TRIPOS>MOLECULE
*****
 53 58 0 0 0
SMALL
GASTEIGER

@<TRIPOS>ATOM
      1 C         140.1821  138.5578  163.5093 C.ar    1  UNL1        0.1452
      2 C         139.1381  137.9893  164.4241 C.ar    1  UNL1        0.0375
      3 C         138.9646  138.5500  165.8045 C.ar    1  UNL1        0.0031
      4 C         139.8351  139.6793  166.2701 C.ar    1  UNL1        0.0002
      5 C         140.8791  140.2479  165.3554 C.ar    1  UNL1        0.0030
      6 C         141.0526  139.6871  163.9750 C.ar    1  UNL1        0.0346
      7 C         139.6617  140.2400  167.6505 C.ar    1  UNL1       -0.0000
      8 C         138.6632  139.6288  168.5883 C.ar    1  UNL1       -0.0000
      9 C         138.4897  140.1896  169.9687 C.ar    1  UNL1       -0.0001
     10 C         139.3147  141.3615  170.4113 C.ar    1  UNL1        0.0039
     11 C         140.3132  141.9727  169.4735 C.ar    1  UNL1        0.0714
     12 C         140.4867  141.4120  168.0931 C.ar    1  UNL1        0.0039
     13 C         141.1382  143.1447  169.9161 C.3     1  UNL1        0.4186
     14 F         141.9632  144.3166  170.3587 F       1  UNL1       -0.1659
     15 F         140.1935  144.0747  169.2143 F       1  UNL1       -0.1659
     16 F         142.0828  142.2146  170.6179 F       1  UNL1       -0.1659
     17 C         142.0966  140.2557  163.0602 C.ar    1  UNL1        0.0057
     18 C         143.4133  139.5555  162.8978 C.ar    1  UNL1        0.0208
     19 C         144.4573  140.1241  161.9831 C.ar    1  UNL1        0.0985
     20 N         144.1847  141.3929  161.2308 N.ar    1  UNL1       -0.2468
     21 C         142.8682  142.0931  161.3932 C.ar    1  UNL1        0.0749
     22 C         141.8241  141.5245  162.3080 C.ar    1  UNL1        0.0162
     23 C         142.5957  143.3618  160.6409 C.3     1  UNL1        0.1151
     24 N         142.6847  144.6842  161.3434 N.3     1  UNL1       -0.2924
     25 H         141.7907  145.1541  161.2009 H       1  UNL1        0.1236
     26 C         142.9704  144.7339  162.8151 C.3     1  UNL1        0.0688
     27 C         141.9728  145.3473  163.7524 C.3     1  UNL1        0.0172
     28 C         140.5983  144.7592  163.8747 C.3     1  UNL1        0.0041
     29 C         140.2859  143.8090  164.9926 C.3     1  UNL1        0.0172
     30 C         138.9114  143.2209  165.1150 C.3     1  UNL1        0.0686
     31 N         137.8494  143.5829  164.1194 N.3     1  UNL1       -0.2975
     32 C         138.1619  144.5330  163.0015 C.3     1  UNL1        0.0686
     33 C         139.5363  145.1211  162.8792 C.3     1  UNL1        0.0172
     34 H         137.0785  143.9924  164.6470 H       1  UNL1        0.1232
     35 O         140.3556  137.9971  162.1289 O.3     1  UNL1       -0.4528
     36 C         140.5523  138.8845  159.6950 C.ar    1  UNL1        0.1042
     37 C         139.9492  139.5910  158.5172 C.ar    1  UNL1        0.0335
     38 C         138.5465  140.1166  158.5956 C.ar    1  UNL1        0.1261
     39 C         137.7468  139.9357  159.8516 C.ar    1  UNL1        0.0234
     40 C         138.3498  139.2292  161.0294 C.ar    1  UNL1        0.0396
     41 C         139.7525  138.7036  160.9512 C.ar    1  UNL1        0.1549
     42 S         137.9434  140.8231  157.4178 S.O2    1  UNL1        0.0751
     43 O         138.1262  139.5895  156.5842 O.2     1  UNL1       -0.1499
     44 O         137.7606  142.0567  158.2514 O.2     1  UNL1       -0.1499
     45 N         137.3404  141.5296  156.2400 N.pl3   1  UNL1       -0.1925
     46 H         137.8630  142.2055  155.7509 H       1  UNL1        0.1758
     47 C         135.9409  141.2063  155.8074 C.ar    1  UNL1        0.1977
     48 N         134.9602  140.3555  156.5586 N.ar    1  UNL1       -0.1997
     49 C         133.6897  140.3004  155.7631 C.ar    1  UNL1        0.2082
     50 N         133.8853  141.1171  154.5201 N.ar    1  UNL1       -0.1840
     51 S         135.2766  141.6769  154.5475 S.2     1  UNL1        0.0508
     52 N         143.3577  137.8334  159.5385 N.1     1  UNL1       -0.1907
     53 C         141.9550  138.3590  159.6168 C.1     1  UNL1        0.1035
@<TRIPOS>BOND
     1    52    53    3
     2    53    36    1
     3    36    37   ar
     4    37    38   ar
     5    38    42    1
     6    42    43    2
     7    42    44    2
     8    42    45    1
     9    45    47    1
    10    47    48   ar
    11    48    49   ar
    12    49    50   ar
    13    50    51   ar
    14    38    39   ar
    15    39    40   ar
    16    40    41   ar
    17    41    35    1
    18    35     1    1
    19     1     2   ar
    20     2     3   ar
    21     3     4   ar
    22     4     7    1
    23     7     8   ar
    24     8     9   ar
    25     9    10   ar
    26    10    11   ar
    27    11    13    1
    28    13    14    1
    29    13    15    1
    30    13    16    1
    31    11    12   ar
    32     4     5   ar
    33     5     6   ar
    34     6    17    1
    35    17    18   ar
    36    18    19   ar
    37    19    20   ar
    38    20    21   ar
    39    21    23    1
    40    23    24    1
    41    24    26    1
    42    26    27    1
    43    27    28    1
    44    28    29    1
    45    29    30    1
    46    30    31    1
    47    31    32    1
    48    32    33    1
    49    21    22   ar
    50    41    36   ar
    51     6     1   ar
    52    22    17   ar
    53    51    47   ar
    54    12     7   ar
    55    33    28    1
    56    45    46    1
    57    24    25    1
    58    31    34    1
@<TRIPOS>MOLECULE
*****
 53 58 0 0 0
SMALL
GASTEIGER

@<TRIPOS>ATOM
      1 C         139.0327  141.0935  163.2199 C.ar    1  UNL1        0.1452
      2 C         138.1930  140.2638  164.1455 C.ar    1  UNL1        0.0375
      3 C         138.4878  140.2501  165.6161 C.ar    1  UNL1        0.0031
      4 C         139.6221  141.0662  166.1613 C.ar    1  UNL1        0.0002
      5 C         140.4618  141.8959  165.2358 C.ar    1  UNL1        0.0030
      6 C         140.1670  141.9096  163.7651 C.ar    1  UNL1        0.0346
      7 C         139.9169  141.0526  167.6320 C.ar    1  UNL1       -0.0000
      8 C         139.1864  140.1030  168.5346 C.ar    1  UNL1       -0.0000
      9 C         139.4811  140.0894  170.0052 C.ar    1  UNL1       -0.0001
     10 C         140.5063  141.0254  170.5734 C.ar    1  UNL1        0.0039
     11 C         141.2368  141.9750  169.6709 C.ar    1  UNL1        0.0714
     12 C         140.9421  141.9886  168.2001 C.ar    1  UNL1        0.0039
     13 C         142.2620  142.9110  170.2390 C.3     1  UNL1        0.4186
     14 F         143.2872  143.8470  170.8072 F       1  UNL1       -0.1659
     15 F         143.2205  141.7676  170.3933 F       1  UNL1       -0.1659
     16 F         141.3036  144.0545  170.0848 F       1  UNL1       -0.1659
     17 C         141.0067  142.7393  162.8396 C.ar    1  UNL1        0.0057
     18 C         140.5402  144.1029  162.4233 C.ar    1  UNL1        0.0208
     19 C         141.3799  144.9326  161.4978 C.ar    1  UNL1        0.0985
     20 N         142.6859  144.3988  160.9886 N.ar    1  UNL1       -0.2468
     21 C         143.1523  143.0353  161.4048 C.ar    1  UNL1        0.0749
     22 C         142.3127  142.2055  162.3304 C.ar    1  UNL1        0.0162
     23 C         144.4584  142.5015  160.8956 C.3     1  UNL1        0.1151
     24 N         145.6214  142.3480  161.8303 N.3     1  UNL1       -0.2924
     25 H         146.2012  143.1797  161.7181 H       1  UNL1        0.1236
     26 C         145.3840  142.1809  163.3019 C.3     1  UNL1        0.0688
     27 C         145.5824  140.8410  163.9463 C.3     1  UNL1        0.0172
     28 C         144.4162  139.9148  164.1253 C.3     1  UNL1        0.0041
     29 C         143.9653  139.0480  162.9871 C.3     1  UNL1        0.0172
     30 C         142.7991  138.1218  163.1660 C.3     1  UNL1        0.0686
     31 N         142.0839  138.0622  164.4833 N.3     1  UNL1       -0.2975
     32 C         142.5348  138.9289  165.6214 C.3     1  UNL1        0.0686
     33 C         143.7010  139.8552  165.4424 C.3     1  UNL1        0.0172
     34 H         142.1429  137.0968  164.8070 H       1  UNL1        0.1232
     35 O         138.7379  141.1071  161.7492 O.3     1  UNL1       -0.4528
     36 C         140.1097  140.9972  159.5455 C.ar    1  UNL1        0.1042
     37 C         140.9864  140.2334  158.5978 C.ar    1  UNL1        0.0335
     38 C         141.3678  138.8158  158.9061 C.ar    1  UNL1        0.1261
     39 C         140.8727  138.1620  160.1620 C.ar    1  UNL1        0.0234
     40 C         139.9961  138.9258  161.1097 C.ar    1  UNL1        0.0396
     41 C         139.6146  140.3433  160.8015 C.ar    1  UNL1        0.1549
     42 S         142.2445  138.0520  157.9584 S.O2    1  UNL1        0.0751
     43 O         143.1824  137.7315  159.0842 O.2     1  UNL1       -0.1499
     44 O         141.3066  138.3726  156.8325 O.2     1  UNL1       -0.1499
     45 N         143.1211  137.2883  157.0106 N.pl3   1  UNL1       -0.1925
     46 H         143.8408  137.7514  156.5240 H       1  UNL1        0.1758
     47 C         142.9013  135.8188  156.8044 C.ar    1  UNL1        0.1977
     48 N         143.5227  134.7134  157.6056 N.ar    1  UNL1       -0.1997
     49 C         143.0268  133.4082  157.0572 C.ar    1  UNL1        0.2082
     50 N         142.0989  133.7071  155.9170 N.ar    1  UNL1       -0.1840
     51 S         142.0214  135.1969  155.7609 S.2     1  UNL1        0.0508
     52 N         139.3468  143.8322  158.9291 N.1     1  UNL1       -0.1907
     53 C         139.7282  142.4147  159.2373 C.1     1  UNL1        0.1035
@<TRIPOS>BOND
     1    52    53    3
     2    53    36    1
     3    36    37   ar
     4    37    38   ar
     5    38    42    1
     6    42    43    2
     7    42    44    2
     8    42    45    1
     9    45    47    1
    10    47    48   ar
    11    48    49   ar
    12    49    50   ar
    13    50    51   ar
    14    38    39   ar
    15    39    40   ar
    16    40    41   ar
    17    41    35    1
    18    35     1    1
    19     1     2   ar
    20     2     3   ar
    21     3     4   ar
    22     4     7    1
    23     7     8   ar
    24     8     9   ar
    25     9    10   ar
    26    10    11   ar
    27    11    13    1
    28    13    14    1
    29    13    15    1
    30    13    16    1
    31    11    12   ar
    32     4     5   ar
    33     5     6   ar
    34     6    17    1
    35    17    18   ar
    36    18    19   ar
    37    19    20   ar
    38    20    21   ar
    39    21    23    1
    40    23    24    1
    41    24    26    1
    42    26    27    1
    43    27    28    1
    44    28    29    1
    45    29    30    1
    46    30    31    1
    47    31    32    1
    48    32    33    1
    49    21    22   ar
    50    41    36   ar
    51     6     1   ar
    52    22    17   ar
    53    51    47   ar
    54    12     7   ar
    55    33    28    1
    56    45    46    1
    57    24    25    1
    58    31    34    1
@<TRIPOS>MOLECULE
*****
 53 58 0 0 0
SMALL
GASTEIGER

@<TRIPOS>ATOM
      1 C         138.9008  140.2018  164.1990 C.ar    1  UNL1        0.1452
      2 C         138.9000  139.0455  165.1547 C.ar    1  UNL1        0.0375
      3 C         139.3751  139.2373  166.5644 C.ar    1  UNL1        0.0031
      4 C         139.8512  140.5853  167.0186 C.ar    1  UNL1        0.0002
      5 C         139.8520  141.7415  166.0631 C.ar    1  UNL1        0.0030
      6 C         139.3769  141.5498  164.6532 C.ar    1  UNL1        0.0346
      7 C         140.3263  140.7770  168.4283 C.ar    1  UNL1       -0.0000
      8 C         139.5858  140.1341  169.5634 C.ar    1  UNL1       -0.0000
      9 C         140.0610  140.3258  170.9732 C.ar    1  UNL1       -0.0001
     10 C         141.2766  141.1606  171.2479 C.ar    1  UNL1        0.0039
     11 C         142.0171  141.8035  170.1129 C.ar    1  UNL1        0.0714
     12 C         141.5419  141.6118  168.7031 C.ar    1  UNL1        0.0039
     13 C         143.2327  142.6383  170.3877 C.3     1  UNL1        0.4186
     14 F         144.4483  143.4730  170.6624 F       1  UNL1       -0.1659
     15 F         144.1015  141.4263  170.2259 F       1  UNL1       -0.1659
     16 F         142.3639  143.8503  170.5494 F       1  UNL1       -0.1659
     17 C         139.3778  142.7060  163.6977 C.ar    1  UNL1        0.0057
     18 C         138.1536  143.5608  163.5535 C.ar    1  UNL1        0.0208
     19 C         138.1544  144.7170  162.5980 C.ar    1  UNL1        0.0985
     20 N         139.3795  145.0185  161.7866 N.ar    1  UNL1       -0.2468
     21 C         140.6037  144.1638  161.9307 C.ar    1  UNL1        0.0749
     22 C         140.6028  143.0075  162.8863 C.ar    1  UNL1        0.0162
     23 C         141.8287  144.4653  161.1194 C.3     1  UNL1        0.1151
     24 N         143.1271  144.7692  161.8062 N.3     1  UNL1       -0.2924
     25 H         142.8930  145.1722  162.7135 H       1  UNL1        0.1236
     26 C         144.1153  143.6702  162.0624 C.3     1  UNL1        0.0688
     27 C         144.2756  143.1134  163.4459 C.3     1  UNL1        0.0172
     28 C         143.9886  141.6648  163.7093 C.3     1  UNL1        0.0041
     29 C         143.2792  141.2574  164.9667 C.3     1  UNL1        0.0172
     30 C         142.9922  139.8089  165.2301 C.3     1  UNL1        0.0686
     31 N         143.4145  138.7678  164.2361 N.3     1  UNL1       -0.2975
     32 C         144.1238  139.1753  162.9789 C.3     1  UNL1        0.0686
     33 C         144.4109  140.6238  162.7155 C.3     1  UNL1        0.0172
     34 H         142.5693  138.2735  163.9504 H       1  UNL1        0.1232
     35 O         138.4257  140.0100  162.7893 O.3     1  UNL1       -0.4528
     36 C         139.4386  140.3721  160.4243 C.ar    1  UNL1        0.1042
     37 C         140.4103  139.9755  159.3527 C.ar    1  UNL1        0.0335
     38 C         141.3411  138.8202  159.5745 C.ar    1  UNL1        0.1261
     39 C         141.3000  138.0616  160.8678 C.ar    1  UNL1        0.0234
     40 C         140.3282  138.4582  161.9394 C.ar    1  UNL1        0.0396
     41 C         139.3975  139.6134  161.7177 C.ar    1  UNL1        0.1549
     42 S         142.3129  138.4236  158.5029 S.O2    1  UNL1        0.0751
     43 O         142.9290  137.4208  159.4327 O.2     1  UNL1       -0.1499
     44 O         141.6967  139.4265  157.5730 O.2     1  UNL1       -0.1499
     45 N         143.2846  138.0270  157.4313 N.pl3   1  UNL1       -0.1925
     46 H         144.1201  138.5340  157.3123 H       1  UNL1        0.1758
     47 C         142.9834  136.8580  156.5409 C.ar    1  UNL1        0.1977
     48 N         141.6686  136.1432  156.4388 N.ar    1  UNL1       -0.1997
     49 C         141.8167  135.0420  155.4312 C.ar    1  UNL1        0.2082
     50 N         143.2231  135.0761  154.9105 N.ar    1  UNL1       -0.1840
     51 S         143.9441  136.1985  155.5964 S.2     1  UNL1        0.0508
     52 N         137.5772  142.6826  159.9809 N.1     1  UNL1       -0.1907
     53 C         138.5079  141.5274  160.2026 C.1     1  UNL1        0.1035
@<TRIPOS>BOND
     1    52    53    3
     2    53    36    1
     3    36    37   ar
     4    37    38   ar
     5    38    42    1
     6    42    43    2
     7    42    44    2
     8    42    45    1
     9    45    47    1
    10    47    48   ar
    11    48    49   ar
    12    49    50   ar
    13    50    51   ar
    14    38    39   ar
    15    39    40   ar
    16    40    41   ar
    17    41    35    1
    18    35     1    1
    19     1     2   ar
    20     2     3   ar
    21     3     4   ar
    22     4     7    1
    23     7     8   ar
    24     8     9   ar
    25     9    10   ar
    26    10    11   ar
    27    11    13    1
    28    13    14    1
    29    13    15    1
    30    13    16    1
    31    11    12   ar
    32     4     5   ar
    33     5     6   ar
    34     6    17    1
    35    17    18   ar
    36    18    19   ar
    37    19    20   ar
    38    20    21   ar
    39    21    23    1
    40    23    24    1
    41    24    26    1
    42    26    27    1
    43    27    28    1
    44    28    29    1
    45    29    30    1
    46    30    31    1
    47    31    32    1
    48    32    33    1
    49    21    22   ar
    50    41    36   ar
    51     6     1   ar
    52    22    17   ar
    53    51    47   ar
    54    12     7   ar
    55    33    28    1
    56    45    46    1
    57    24    25    1
    58    31    34    1
@<TRIPOS>MOLECULE
*****
 53 58 0 0 0
SMALL
GASTEIGER

@<TRIPOS>ATOM
      1 C         142.1861  139.1032  162.9064 C.ar    1  UNL1        0.1452
      2 C         141.8631  138.0677  163.9425 C.ar    1  UNL1        0.0375
      3 C         141.8507  138.4391  165.3957 C.ar    1  UNL1        0.0031
      4 C         142.1612  139.8460  165.8129 C.ar    1  UNL1        0.0002
      5 C         142.4842  140.8816  164.7770 C.ar    1  UNL1        0.0030
      6 C         142.4966  140.5102  163.3237 C.ar    1  UNL1        0.0346
      7 C         142.1487  140.2174  167.2661 C.ar    1  UNL1       -0.0000
      8 C         142.6111  139.2302  168.2966 C.ar    1  UNL1       -0.0000
      9 C         142.5986  139.6016  169.7498 C.ar    1  UNL1       -0.0001
     10 C         142.1239  140.9602  170.1726 C.ar    1  UNL1        0.0039
     11 C         141.6616  141.9474  169.1423 C.ar    1  UNL1        0.0714
     12 C         141.6740  141.5760  167.6890 C.ar    1  UNL1        0.0039
     13 C         141.1868  143.3060  169.5652 C.3     1  UNL1        0.4186
     14 F         140.7120  144.6646  169.9880 F       1  UNL1       -0.1659
     15 F         139.9703  143.1497  168.7016 F       1  UNL1       -0.1659
     16 F         142.4033  143.4623  170.4287 F       1  UNL1       -0.1659
     17 C         142.8196  141.5457  162.2877 C.ar    1  UNL1        0.0057
     18 C         144.1759  141.5684  161.6472 C.ar    1  UNL1        0.0208
     19 C         144.4989  142.6039  160.6112 C.ar    1  UNL1        0.0985
     20 N         143.4657  143.6169  160.2157 N.ar    1  UNL1       -0.2468
     21 C         142.1095  143.5942  160.8561 C.ar    1  UNL1        0.0749
     22 C         141.7864  142.5587  161.8921 C.ar    1  UNL1        0.0162
     23 C         141.0763  144.6072  160.4606 C.3     1  UNL1        0.1151
     24 N         140.6894  145.6965  161.4164 N.3     1  UNL1       -0.2924
     25 H         140.5868  146.5488  160.8656 H       1  UNL1        0.1236
     26 C         139.4446  145.5623  162.2425 C.3     1  UNL1        0.0688
     27 C         139.5088  144.9207  163.5968 C.3     1  UNL1        0.0172
     28 C         138.9181  143.5585  163.8101 C.3     1  UNL1        0.0041
     29 C         139.3250  142.7427  165.0014 C.3     1  UNL1        0.0172
     30 C         138.7343  141.3805  165.2147 C.3     1  UNL1        0.0686
     31 N         137.7367  140.8341  164.2368 N.3     1  UNL1       -0.2975
     32 C         137.3299  141.6499  163.0456 C.3     1  UNL1        0.0686
     33 C         137.9205  143.0120  162.8322 C.3     1  UNL1        0.0172
     34 H         136.8856  140.6372  164.7633 H       1  UNL1        0.1232
     35 O         142.1986  138.7318  161.4532 O.3     1  UNL1       -0.4528
     36 C         141.4714  139.7525  159.1773 C.ar    1  UNL1        0.1042
     37 C         140.3925  140.2565  158.2651 C.ar    1  UNL1        0.0335
     38 C         138.9621  140.2439  158.7166 C.ar    1  UNL1        0.1261
     39 C         138.6105  139.7272  160.0802 C.ar    1  UNL1        0.0234
     40 C         139.6894  139.2232  160.9924 C.ar    1  UNL1        0.0396
     41 C         141.1197  139.2359  160.5410 C.ar    1  UNL1        0.1549
     42 S         137.8833  140.7479  157.8044 S.O2    1  UNL1        0.0751
     43 O         136.8418  140.1791  158.7219 O.2     1  UNL1       -0.1499
     44 O         138.9248  141.3167  156.8869 O.2     1  UNL1       -0.1499
     45 N         136.8045  141.2519  156.8922 N.pl3   1  UNL1       -0.1925
     46 H         136.2246  141.9942  157.1786 H       1  UNL1        0.1758
     47 C         136.6090  140.6249  155.5436 C.ar    1  UNL1        0.1977
     48 N         136.5674  139.1539  155.2528 N.ar    1  UNL1       -0.1997
     49 C         136.3536  138.9787  153.7785 C.ar    1  UNL1        0.2082
     50 N         136.2631  140.3414  153.1581 N.ar    1  UNL1       -0.1840
     51 S         136.4209  141.3588  154.2489 S.2     1  UNL1        0.0508
     52 N         144.3321  139.7778  158.2746 N.1     1  UNL1       -0.1907
     53 C         142.9017  139.7652  158.7260 C.1     1  UNL1        0.1035
@<TRIPOS>BOND
     1    52    53    3
     2    53    36    1
     3    36    37   ar
     4    37    38   ar
     5    38    42    1
     6    42    43    2
     7    42    44    2
     8    42    45    1
     9    45    47    1
    10    47    48   ar
    11    48    49   ar
    12    49    50   ar
    13    50    51   ar
    14    38    39   ar
    15    39    40   ar
    16    40    41   ar
    17    41    35    1
    18    35     1    1
    19     1     2   ar
    20     2     3   ar
    21     3     4   ar
    22     4     7    1
    23     7     8   ar
    24     8     9   ar
    25     9    10   ar
    26    10    11   ar
    27    11    13    1
    28    13    14    1
    29    13    15    1
    30    13    16    1
    31    11    12   ar
    32     4     5   ar
    33     5     6   ar
    34     6    17    1
    35    17    18   ar
    36    18    19   ar
    37    19    20   ar
    38    20    21   ar
    39    21    23    1
    40    23    24    1
    41    24    26    1
    42    26    27    1
    43    27    28    1
    44    28    29    1
    45    29    30    1
    46    30    31    1
    47    31    32    1
    48    32    33    1
    49    21    22   ar
    50    41    36   ar
    51     6     1   ar
    52    22    17   ar
    53    51    47   ar
    54    12     7   ar
    55    33    28    1
    56    45    46    1
    57    24    25    1
    58    31    34    1
@<TRIPOS>MOLECULE
*****
 53 58 0 0 0
SMALL
GASTEIGER

@<TRIPOS>ATOM
      1 C         140.5950  143.9356  163.0001 C.ar    1  UNL1        0.1452
      2 C         139.8055  144.6395  164.0638 C.ar    1  UNL1        0.0375
      3 C         139.8707  144.1635  165.4848 C.ar    1  UNL1        0.0031
      4 C         140.7253  142.9837  165.8421 C.ar    1  UNL1        0.0002
      5 C         141.5148  142.2799  164.7785 C.ar    1  UNL1        0.0030
      6 C         141.4497  142.7559  163.3575 C.ar    1  UNL1        0.0346
      7 C         140.7905  142.5077  167.2631 C.ar    1  UNL1       -0.0000
      8 C         140.1802  143.3310  168.3586 C.ar    1  UNL1       -0.0000
      9 C         140.2454  142.8550  169.7795 C.ar    1  UNL1       -0.0001
     10 C         140.9208  141.5558  170.1051 C.ar    1  UNL1        0.0039
     11 C         141.5310  140.7326  169.0097 C.ar    1  UNL1        0.0714
     12 C         141.4659  141.2086  167.5887 C.ar    1  UNL1        0.0039
     13 C         142.2064  139.4334  169.3353 C.3     1  UNL1        0.4186
     14 F         142.8818  138.1343  169.6609 F       1  UNL1       -0.1659
     15 F         142.1283  139.7592  170.7974 F       1  UNL1       -0.1659
     16 F         142.2845  139.1076  167.8732 F       1  UNL1       -0.1659
     17 C         142.2391  142.0520  162.2939 C.ar    1  UNL1        0.0057
     18 C         143.4280  142.7244  161.6736 C.ar    1  UNL1        0.0208
     19 C         144.2175  142.0206  160.6100 C.ar    1  UNL1        0.0985
     20 N         143.8182  140.6444  160.1666 N.ar    1  UNL1       -0.2468
     21 C         142.6294  139.9720  160.7868 C.ar    1  UNL1        0.0749
     22 C         141.8399  140.6758  161.8505 C.ar    1  UNL1        0.0162
     23 C         142.2302  138.5958  160.3434 C.3     1  UNL1        0.1151
     24 N         142.3036  137.4471  161.3052 N.3     1  UNL1       -0.2924
     25 H         143.2806  137.3591  161.5846 H       1  UNL1        0.1236
     26 C         141.4929  137.4725  162.5670 C.3     1  UNL1        0.0688
     27 C         140.0090  137.6812  162.5010 C.3     1  UNL1        0.0172
     28 C         139.3033  138.4042  163.6097 C.3     1  UNL1        0.0041
     29 C         138.8490  139.8201  163.4119 C.3     1  UNL1        0.0172
     30 C         138.1432  140.5431  164.5206 C.3     1  UNL1        0.0686
     31 N         137.8918  139.8503  165.8271 N.3     1  UNL1       -0.2975
     32 C         138.3461  138.4345  166.0248 C.3     1  UNL1        0.0686
     33 C         139.0519  137.7115  164.9161 C.3     1  UNL1        0.0172
     34 H         136.8828  139.8592  165.9757 H       1  UNL1        0.1232
     35 O         140.5299  144.4116  161.5792 O.3     1  UNL1       -0.4528
     36 C         140.1019  143.8007  159.0904 C.ar    1  UNL1        0.1042
     37 C         139.3810  142.9850  158.0585 C.ar    1  UNL1        0.0335
     38 C         138.3671  141.9644  158.4834 C.ar    1  UNL1        0.1261
     39 C         138.0742  141.7595  159.9402 C.ar    1  UNL1        0.0234
     40 C         138.7951  142.5753  160.9721 C.ar    1  UNL1        0.0396
     41 C         139.8089  143.5959  160.5473 C.ar    1  UNL1        0.1549
     42 S         137.6462  141.1486  157.4515 S.O2    1  UNL1        0.0751
     43 O         137.9562  142.1869  156.4142 O.2     1  UNL1       -0.1499
     44 O         137.3363  140.1103  158.4888 O.2     1  UNL1       -0.1499
     45 N         136.9253  140.3328  156.4196 N.pl3   1  UNL1       -0.1925
     46 H         137.4200  139.6771  155.8769 H       1  UNL1        0.1758
     47 C         135.4507  140.5163  156.2146 C.ar    1  UNL1        0.1977
     48 N         134.3615  139.8468  156.9991 N.ar    1  UNL1       -0.1997
     49 C         133.0441  140.3181  156.4584 C.ar    1  UNL1        0.2082
     50 N         133.3191  141.2789  155.3398 N.ar    1  UNL1       -0.1840
     51 S         134.8065  141.4013  155.1891 S.2     1  UNL1        0.0508
     52 N         142.1296  145.8419  158.2407 N.1     1  UNL1       -0.1907
     53 C         141.1157  144.8213  158.6656 C.1     1  UNL1        0.1035
@<TRIPOS>BOND
     1    52    53    3
     2    53    36    1
     3    36    37   ar
     4    37    38   ar
     5    38    42    1
     6    42    43    2
     7    42    44    2
     8    42    45    1
     9    45    47    1
    10    47    48   ar
    11    48    49   ar
    12    49    50   ar
    13    50    51   ar
    14    38    39   ar
    15    39    40   ar
    16    40    41   ar
    17    41    35    1
    18    35     1    1
    19     1     2   ar
    20     2     3   ar
    21     3     4   ar
    22     4     7    1
    23     7     8   ar
    24     8     9   ar
    25     9    10   ar
    26    10    11   ar
    27    11    13    1
    28    13    14    1
    29    13    15    1
    30    13    16    1
    31    11    12   ar
    32     4     5   ar
    33     5     6   ar
    34     6    17    1
    35    17    18   ar
    36    18    19   ar
    37    19    20   ar
    38    20    21   ar
    39    21    23    1
    40    23    24    1
    41    24    26    1
    42    26    27    1
    43    27    28    1
    44    28    29    1
    45    29    30    1
    46    30    31    1
    47    31    32    1
    48    32    33    1
    49    21    22   ar
    50    41    36   ar
    51     6     1   ar
    52    22    17   ar
    53    51    47   ar
    54    12     7   ar
    55    33    28    1
    56    45    46    1
    57    24    25    1
    58    31    34    1
@<TRIPOS>MOLECULE
*****
 53 58 0 0 0
SMALL
GASTEIGER

@<TRIPOS>ATOM
      1 C         142.3330  139.4060  163.3937 C.ar    1  UNL1        0.1452
      2 C         143.5146  139.1411  164.2791 C.ar    1  UNL1        0.0375
      3 C         143.3881  139.2980  165.7655 C.ar    1  UNL1        0.0031
      4 C         142.0801  139.7196  166.3666 C.ar    1  UNL1        0.0002
      5 C         140.8985  139.9844  165.4813 C.ar    1  UNL1        0.0030
      6 C         141.0250  139.8276  163.9948 C.ar    1  UNL1        0.0346
      7 C         141.9536  139.8764  167.8530 C.ar    1  UNL1       -0.0000
      8 C         142.7382  138.9862  168.7705 C.ar    1  UNL1       -0.0000
      9 C         142.6118  139.1430  170.2569 C.ar    1  UNL1       -0.0001
     10 C         141.7006  140.1900  170.8258 C.ar    1  UNL1        0.0039
     11 C         140.9160  141.0802  169.9083 C.ar    1  UNL1        0.0714
     12 C         141.0425  140.9234  168.4218 C.ar    1  UNL1        0.0039
     13 C         140.0049  142.1272  170.4772 C.3     1  UNL1        0.4186
     14 F         139.0938  143.1742  171.0461 F       1  UNL1       -0.1659
     15 F         141.1817  143.0303  170.6999 F       1  UNL1       -0.1659
     16 F         138.8281  141.2242  170.2544 F       1  UNL1       -0.1659
     17 C         139.8435  140.0924  163.1095 C.ar    1  UNL1        0.0057
     18 C         138.9154  138.9725  162.7423 C.ar    1  UNL1        0.0208
     19 C         137.7339  139.2373  161.8570 C.ar    1  UNL1        0.0985
     20 N         137.4803  140.6220  161.3389 N.ar    1  UNL1       -0.2468
     21 C         138.4082  141.7418  161.7060 C.ar    1  UNL1        0.0749
     22 C         139.5899  141.4770  162.5914 C.ar    1  UNL1        0.0162
     23 C         138.1546  143.1264  161.1879 C.3     1  UNL1        0.1151
     24 N         139.2165  144.1789  161.3094 N.3     1  UNL1       -0.2924
     25 H         139.2215  144.6950  160.4297 H       1  UNL1        0.1236
     26 C         139.1411  145.1970  162.4084 C.3     1  UNL1        0.0688
     27 C         139.6643  144.8661  163.7746 C.3     1  UNL1        0.0172
     28 C         141.1157  144.5370  163.9625 C.3     1  UNL1        0.0041
     29 C         142.1631  145.3165  163.2240 C.3     1  UNL1        0.0172
     30 C         143.6145  144.9874  163.4119 C.3     1  UNL1        0.0686
     31 N         144.0183  143.8788  164.3382 N.3     1  UNL1       -0.2975
     32 C         142.9709  143.0993  165.0766 C.3     1  UNL1        0.0686
     33 C         141.5195  143.4284  164.8887 C.3     1  UNL1        0.0172
     34 H         144.6294  144.2917  165.0429 H       1  UNL1        0.1232
     35 O         142.4595  139.2491  161.9074 O.3     1  UNL1       -0.4528
     36 C         141.6037  140.5410  159.8220 C.ar    1  UNL1        0.1042
     37 C         141.6397  141.7539  158.9402 C.ar    1  UNL1        0.0335
     38 C         142.5674  142.8879  159.2620 C.ar    1  UNL1        0.1261
     39 C         143.4590  142.8089  160.4656 C.ar    1  UNL1        0.0234
     40 C         143.4231  141.5960  161.3474 C.ar    1  UNL1        0.0396
     41 C         142.4955  140.4621  161.0256 C.ar    1  UNL1        0.1549
     42 S         142.6033  144.1008  158.3802 S.O2    1  UNL1        0.0751
     43 O         141.7837  144.8554  159.3847 O.2     1  UNL1       -0.1499
     44 O         143.4228  143.3463  157.3758 O.2     1  UNL1       -0.1499
     45 N         142.6392  145.3137  157.4985 N.pl3   1  UNL1       -0.1925
     46 H         143.4299  145.9004  157.5003 H       1  UNL1        0.1758
     47 C         141.4705  145.6328  156.6139 C.ar    1  UNL1        0.1977
     48 N         140.3260  146.5393  156.9579 N.ar    1  UNL1       -0.1997
     49 C         139.3893  146.5681  155.7867 C.ar    1  UNL1        0.2082
     50 N         139.9550  145.6795  154.7188 N.ar    1  UNL1       -0.1840
     51 S         141.2412  145.1014  155.2300 S.2     1  UNL1        0.0508
     52 N         139.7485  138.2731  159.1784 N.1     1  UNL1       -0.1907
     53 C         140.6761  139.4070  159.5002 C.1     1  UNL1        0.1035
@<TRIPOS>BOND
     1    52    53    3
     2    53    36    1
     3    36    37   ar
     4    37    38   ar
     5    38    42    1
     6    42    43    2
     7    42    44    2
     8    42    45    1
     9    45    47    1
    10    47    48   ar
    11    48    49   ar
    12    49    50   ar
    13    50    51   ar
    14    38    39   ar
    15    39    40   ar
    16    40    41   ar
    17    41    35    1
    18    35     1    1
    19     1     2   ar
    20     2     3   ar
    21     3     4   ar
    22     4     7    1
    23     7     8   ar
    24     8     9   ar
    25     9    10   ar
    26    10    11   ar
    27    11    13    1
    28    13    14    1
    29    13    15    1
    30    13    16    1
    31    11    12   ar
    32     4     5   ar
    33     5     6   ar
    34     6    17    1
    35    17    18   ar
    36    18    19   ar
    37    19    20   ar
    38    20    21   ar
    39    21    23    1
    40    23    24    1
    41    24    26    1
    42    26    27    1
    43    27    28    1
    44    28    29    1
    45    29    30    1
    46    30    31    1
    47    31    32    1
    48    32    33    1
    49    21    22   ar
    50    41    36   ar
    51     6     1   ar
    52    22    17   ar
    53    51    47   ar
    54    12     7   ar
    55    33    28    1
    56    45    46    1
    57    24    25    1
    58    31    34    1
@<TRIPOS>MOLECULE
*****
 53 58 0 0 0
SMALL
GASTEIGER

@<TRIPOS>ATOM
      1 C         140.3258  143.8805  162.9854 C.ar    1  UNL1        0.1452
      2 C         139.4121  144.4314  164.0398 C.ar    1  UNL1        0.0375
      3 C         139.5324  143.9584  165.4581 C.ar    1  UNL1        0.0031
      4 C         140.5665  142.9346  165.8222 C.ar    1  UNL1        0.0002
      5 C         141.4802  142.3838  164.7678 C.ar    1  UNL1        0.0030
      6 C         141.3599  142.8567  163.3494 C.ar    1  UNL1        0.0346
      7 C         140.6868  142.4616  167.2405 C.ar    1  UNL1       -0.0000
      8 C         140.1196  143.2872  168.3571 C.ar    1  UNL1       -0.0000
      9 C         140.2399  142.8142  169.7755 C.ar    1  UNL1       -0.0001
     10 C         140.9275  141.5157  170.0773 C.ar    1  UNL1        0.0039
     11 C         141.4947  140.6901  168.9608 C.ar    1  UNL1        0.0714
     12 C         141.3744  141.1631  167.5423 C.ar    1  UNL1        0.0039
     13 C         142.1823  139.3916  169.2626 C.3     1  UNL1        0.4186
     14 F         142.8699  138.0931  169.5644 F       1  UNL1       -0.1659
     15 F         143.1561  139.6489  168.1511 F       1  UNL1       -0.1659
     16 F         141.2085  139.1343  170.3741 F       1  UNL1       -0.1659
     17 C         142.2737  142.3059  162.2951 C.ar    1  UNL1        0.0057
     18 C         143.2406  143.2123  161.5925 C.ar    1  UNL1        0.0208
     19 C         144.1543  142.6615  160.5381 C.ar    1  UNL1        0.0985
     20 N         144.1012  141.2043  160.1864 N.ar    1  UNL1       -0.2468
     21 C         143.1344  140.2979  160.8889 C.ar    1  UNL1        0.0749
     22 C         142.2206  140.8487  161.9433 C.ar    1  UNL1        0.0162
     23 C         143.0813  138.8407  160.5372 C.3     1  UNL1        0.1151
     24 N         142.6396  137.8376  161.5612 N.3     1  UNL1       -0.2924
     25 H         143.1250  138.0685  162.4281 H       1  UNL1        0.1236
     26 C         141.1848  137.7043  161.9017 C.3     1  UNL1        0.0688
     27 C         140.7645  137.4901  163.3256 C.3     1  UNL1        0.0172
     28 C         139.8080  138.4445  163.9769 C.3     1  UNL1        0.0041
     29 C         139.6078  138.4084  165.4631 C.3     1  UNL1        0.0172
     30 C         138.6514  139.3628  166.1145 C.3     1  UNL1        0.0686
     31 N         137.8951  140.3534  165.2796 N.3     1  UNL1       -0.2975
     32 C         138.0953  140.3895  163.7935 C.3     1  UNL1        0.0686
     33 C         139.0517  139.4351  163.1421 C.3     1  UNL1        0.0172
     34 H         138.1359  141.2799  165.6317 H       1  UNL1        0.1232
     35 O         140.2055  144.3535  161.5670 O.3     1  UNL1       -0.4528
     36 C         140.2816  143.5575  159.0950 C.ar    1  UNL1        0.1042
     37 C         139.8397  142.6067  158.0223 C.ar    1  UNL1        0.0335
     38 C         138.8798  141.5012  158.3488 C.ar    1  UNL1        0.1261
     39 C         138.3618  141.3466  159.7480 C.ar    1  UNL1        0.0234
     40 C         138.8037  142.2973  160.8207 C.ar    1  UNL1        0.0396
     41 C         139.7636  143.4027  160.4943 C.ar    1  UNL1        0.1549
     42 S         138.4379  140.5504  157.2761 S.O2    1  UNL1        0.0751
     43 O         138.4142  141.6777  156.2868 O.2     1  UNL1       -0.1499
     44 O         138.4616  139.4232  158.2654 O.2     1  UNL1       -0.1499
     45 N         137.9960  139.5997  156.2033 N.pl3   1  UNL1       -0.1925
     46 H         137.0879  139.6674  155.8291 H       1  UNL1        0.1758
     47 C         138.9377  138.5457  155.7009 C.ar    1  UNL1        0.1977
     48 N         138.7077  137.0641  155.7455 N.ar    1  UNL1       -0.1997
     49 C         139.9025  136.3911  155.1378 C.ar    1  UNL1        0.2082
     50 N         140.8710  137.4567  154.7175 N.ar    1  UNL1       -0.1840
     51 S         140.2746  138.7883  155.0655 S.2     1  UNL1        0.0508
     52 N         142.2014  145.7683  158.4422 N.1     1  UNL1       -0.1907
     53 C         141.2415  144.6629  158.7686 C.1     1  UNL1        0.1035
@<TRIPOS>BOND
     1    52    53    3
     2    53    36    1
     3    36    37   ar
     4    37    38   ar
     5    38    42    1
     6    42    43    2
     7    42    44    2
     8    42    45    1
     9    45    47    1
    10    47    48   ar
    11    48    49   ar
    12    49    50   ar
    13    50    51   ar
    14    38    39   ar
    15    39    40   ar
    16    40    41   ar
    17    41    35    1
    18    35     1    1
    19     1     2   ar
    20     2     3   ar
    21     3     4   ar
    22     4     7    1
    23     7     8   ar
    24     8     9   ar
    25     9    10   ar
    26    10    11   ar
    27    11    13    1
    28    13    14    1
    29    13    15    1
    30    13    16    1
    31    11    12   ar
    32     4     5   ar
    33     5     6   ar
    34     6    17    1
    35    17    18   ar
    36    18    19   ar
    37    19    20   ar
    38    20    21   ar
    39    21    23    1
    40    23    24    1
    41    24    26    1
    42    26    27    1
    43    27    28    1
    44    28    29    1
    45    29    30    1
    46    30    31    1
    47    31    32    1
    48    32    33    1
    49    21    22   ar
    50    41    36   ar
    51     6     1   ar
    52    22    17   ar
    53    51    47   ar
    54    12     7   ar
    55    33    28    1
    56    45    46    1
    57    24    25    1
    58    31    34    1
@<TRIPOS>MOLECULE
*****
 53 58 0 0 0
SMALL
GASTEIGER

@<TRIPOS>ATOM
      1 C         142.0456  139.0317  162.9653 C.ar    1  UNL1        0.1452
      2 C         141.6615  137.9795  163.9631 C.ar    1  UNL1        0.0375
      3 C         141.6366  138.3072  165.4266 C.ar    1  UNL1        0.0031
      4 C         141.9958  139.6870  165.8925 C.ar    1  UNL1        0.0002
      5 C         142.3798  140.7392  164.8948 C.ar    1  UNL1        0.0030
      6 C         142.4048  140.4115  163.4312 C.ar    1  UNL1        0.0346
      7 C         141.9708  140.0147  167.3560 C.ar    1  UNL1       -0.0000
      8 C         142.6081  139.0832  168.3441 C.ar    1  UNL1       -0.0000
      9 C         142.5832  139.4108  169.8076 C.ar    1  UNL1       -0.0001
     10 C         141.9210  140.6700  170.2832 C.ar    1  UNL1        0.0039
     11 C         141.2838  141.6015  169.2951 C.ar    1  UNL1        0.0714
     12 C         141.3087  141.2738  167.8315 C.ar    1  UNL1        0.0039
     13 C         140.6217  142.8606  169.7706 C.3     1  UNL1        0.4186
     14 F         139.9595  144.1198  170.2462 F       1  UNL1       -0.1659
     15 F         139.3239  142.1228  169.9171 F       1  UNL1       -0.1659
     16 F         141.9194  143.5984  169.6242 F       1  UNL1       -0.1659
     17 C         142.7888  141.4637  162.4335 C.ar    1  UNL1        0.0057
     18 C         144.1894  141.5146  161.8987 C.ar    1  UNL1        0.0208
     19 C         144.5735  142.5668  160.9011 C.ar    1  UNL1        0.0985
     20 N         143.5570  143.5681  160.4382 N.ar    1  UNL1       -0.2468
     21 C         142.1566  143.5173  160.9729 C.ar    1  UNL1        0.0749
     22 C         141.7724  142.4650  161.9706 C.ar    1  UNL1        0.0162
     23 C         141.1402  144.5186  160.5100 C.3     1  UNL1        0.1151
     24 N         140.7275  145.6415  161.4148 N.3     1  UNL1       -0.2924
     25 H         139.8250  145.9755  161.0768 H       1  UNL1        0.1236
     26 C         140.5762  145.4010  162.8877 C.3     1  UNL1        0.0688
     27 C         139.2170  145.1520  163.4712 C.3     1  UNL1        0.0172
     28 C         138.7528  143.7472  163.7184 C.3     1  UNL1        0.0041
     29 C         137.7760  143.1039  162.7791 C.3     1  UNL1        0.0172
     30 C         137.3118  141.6991  163.0263 C.3     1  UNL1        0.0686
     31 N         137.8244  140.9376  164.2127 N.3     1  UNL1       -0.2975
     32 C         138.8011  141.5809  165.1519 C.3     1  UNL1        0.0686
     33 C         139.2653  142.9857  164.9047 C.3     1  UNL1        0.0172
     34 H         138.2740  140.0966  163.8509 H       1  UNL1        0.1232
     35 O         142.0705  138.7040  161.5018 O.3     1  UNL1       -0.4528
     36 C         141.4459  139.8557  159.2582 C.ar    1  UNL1        0.1042
     37 C         140.4122  140.4393  158.3413 C.ar    1  UNL1        0.0335
     38 C         138.9692  140.4548  158.7510 C.ar    1  UNL1        0.1261
     39 C         138.5601  139.8867  160.0775 C.ar    1  UNL1        0.0234
     40 C         139.5939  139.3031  160.9945 C.ar    1  UNL1        0.0396
     41 C         141.0368  139.2876  160.5848 C.ar    1  UNL1        0.1549
     42 S         137.9355  141.0383  157.8340 S.O2    1  UNL1        0.0751
     43 O         137.9831  142.3269  158.6004 O.2     1  UNL1       -0.1499
     44 O         137.8879  139.7498  157.0676 O.2     1  UNL1       -0.1499
     45 N         136.9017  141.6219  156.9171 N.pl3   1  UNL1       -0.1925
     46 H         135.9602  141.3457  156.9976 H       1  UNL1        0.1758
     47 C         137.3025  142.6263  155.8775 C.ar    1  UNL1        0.1977
     48 N         136.6943  143.9834  155.6819 N.ar    1  UNL1       -0.1997
     49 C         137.3979  144.6456  154.5345 C.ar    1  UNL1        0.2082
     50 N         138.4409  143.6978  154.0210 N.ar    1  UNL1       -0.1840
     51 S         138.3820  142.4498  154.8510 S.2     1  UNL1        0.0508
     52 N         144.3317  139.8247  158.4389 N.1     1  UNL1       -0.1907
     53 C         142.8888  139.8402  158.8486 C.1     1  UNL1        0.1035
@<TRIPOS>BOND
     1    52    53    3
     2    53    36    1
     3    36    37   ar
     4    37    38   ar
     5    38    42    1
     6    42    43    2
     7    42    44    2
     8    42    45    1
     9    45    47    1
    10    47    48   ar
    11    48    49   ar
    12    49    50   ar
    13    50    51   ar
    14    38    39   ar
    15    39    40   ar
    16    40    41   ar
    17    41    35    1
    18    35     1    1
    19     1     2   ar
    20     2     3   ar
    21     3     4   ar
    22     4     7    1
    23     7     8   ar
    24     8     9   ar
    25     9    10   ar
    26    10    11   ar
    27    11    13    1
    28    13    14    1
    29    13    15    1
    30    13    16    1
    31    11    12   ar
    32     4     5   ar
    33     5     6   ar
    34     6    17    1
    35    17    18   ar
    36    18    19   ar
    37    19    20   ar
    38    20    21   ar
    39    21    23    1
    40    23    24    1
    41    24    26    1
    42    26    27    1
    43    27    28    1
    44    28    29    1
    45    29    30    1
    46    30    31    1
    47    31    32    1
    48    32    33    1
    49    21    22   ar
    50    41    36   ar
    51     6     1   ar
    52    22    17   ar
    53    51    47   ar
    54    12     7   ar
    55    33    28    1
    56    45    46    1
    57    24    25    1
    58    31    34    1
@<TRIPOS>MOLECULE
*****
 53 58 0 0 0
SMALL
GASTEIGER

@<TRIPOS>ATOM
      1 C         141.9459  138.9816  162.3469 C.ar    1  UNL1        0.1452
      2 C         141.6674  137.9026  163.3510 C.ar    1  UNL1        0.0375
      3 C         141.5789  138.2402  164.8098 C.ar    1  UNL1        0.0031
      4 C         141.7689  139.6569  165.2646 C.ar    1  UNL1        0.0002
      5 C         142.0474  140.7360  164.2606 C.ar    1  UNL1        0.0030
      6 C         142.1359  140.3983  162.8017 C.ar    1  UNL1        0.0346
      7 C         141.6803  139.9946  166.7234 C.ar    1  UNL1       -0.0000
      8 C         142.9021  140.4542  167.4623 C.ar    1  UNL1       -0.0000
      9 C         142.8136  140.7919  168.9211 C.ar    1  UNL1       -0.0001
     10 C         141.5033  140.6699  169.6410 C.ar    1  UNL1        0.0039
     11 C         140.2816  140.2102  168.9022 C.ar    1  UNL1        0.0714
     12 C         140.3700  139.8725  167.4433 C.ar    1  UNL1        0.0039
     13 C         138.9713  140.0882  169.6221 C.3     1  UNL1        0.4186
     14 F         137.6610  139.9662  170.3420 F       1  UNL1       -0.1659
     15 F         139.6217  140.5653  170.8867 F       1  UNL1       -0.1659
     16 F         138.3209  139.6111  168.3574 F       1  UNL1       -0.1659
     17 C         142.4144  141.4774  161.7978 C.ar    1  UNL1        0.0057
     18 C         143.8173  141.7166  161.3235 C.ar    1  UNL1        0.0208
     19 C         144.0958  142.7957  160.3195 C.ar    1  UNL1        0.0985
     20 N         142.9715  143.6356  159.7898 N.ar    1  UNL1       -0.2468
     21 C         141.5687  143.3964  160.2640 C.ar    1  UNL1        0.0749
     22 C         141.2902  142.3173  161.2680 C.ar    1  UNL1        0.0162
     23 C         140.4445  144.2363  159.7343 C.3     1  UNL1        0.1151
     24 N         139.7639  145.2292  160.6292 N.3     1  UNL1       -0.2924
     25 H         138.7656  145.0234  160.5918 H       1  UNL1        0.1236
     26 C         140.1356  145.3092  162.0802 C.3     1  UNL1        0.0688
     27 C         139.1028  145.0425  163.1347 C.3     1  UNL1        0.0172
     28 C         138.6370  143.6398  163.3906 C.3     1  UNL1        0.0041
     29 C         137.8339  142.9149  162.3514 C.3     1  UNL1        0.0172
     30 C         137.3681  141.5122  162.6073 C.3     1  UNL1        0.0686
     31 N         137.7054  140.8343  163.9022 N.3     1  UNL1       -0.2975
     32 C         138.5084  141.5592  164.9413 C.3     1  UNL1        0.0686
     33 C         138.9742  142.9619  164.6854 C.3     1  UNL1        0.0172
     34 H         138.2248  139.9890  163.6655 H       1  UNL1        0.1232
     35 O         142.0344  138.6440  160.8881 O.3     1  UNL1       -0.4528
     36 C         141.4580  139.7733  158.6204 C.ar    1  UNL1        0.1042
     37 C         140.4408  140.3173  157.6616 C.ar    1  UNL1        0.0335
     38 C         138.9828  140.2759  158.0117 C.ar    1  UNL1        0.1261
     39 C         138.5420  139.6905  159.3205 C.ar    1  UNL1        0.0234
     40 C         139.5592  139.1466  160.2793 C.ar    1  UNL1        0.0396
     41 C         141.0172  139.1880  159.9293 C.ar    1  UNL1        0.1549
     42 S         137.9655  140.8199  157.0528 S.O2    1  UNL1        0.0751
     43 O         137.7516  142.0023  157.9506 O.2     1  UNL1       -0.1499
     44 O         138.1794  139.6374  156.1551 O.2     1  UNL1       -0.1499
     45 N         136.9483  141.3638  156.0940 N.pl3   1  UNL1       -0.1925
     46 H         137.2159  142.0241  155.4146 H       1  UNL1        0.1758
     47 C         135.5232  140.9017  156.1704 C.ar    1  UNL1        0.1977
     48 N         134.9376  140.0215  157.2344 N.ar    1  UNL1       -0.1997
     49 C         133.4861  139.8145  156.9177 C.ar    1  UNL1        0.2082
     50 N         133.1746  140.5668  155.6579 N.ar    1  UNL1       -0.1840
     51 S         134.4337  141.2388  155.1961 S.2     1  UNL1        0.0508
     52 N         144.3740  139.8561  157.9205 N.1     1  UNL1       -0.1907
     53 C         142.9160  139.8147  158.2704 C.1     1  UNL1        0.1035
@<TRIPOS>BOND
     1    52    53    3
     2    53    36    1
     3    36    37   ar
     4    37    38   ar
     5    38    42    1
     6    42    43    2
     7    42    44    2
     8    42    45    1
     9    45    47    1
    10    47    48   ar
    11    48    49   ar
    12    49    50   ar
    13    50    51   ar
    14    38    39   ar
    15    39    40   ar
    16    40    41   ar
    17    41    35    1
    18    35     1    1
    19     1     2   ar
    20     2     3   ar
    21     3     4   ar
    22     4     7    1
    23     7     8   ar
    24     8     9   ar
    25     9    10   ar
    26    10    11   ar
    27    11    13    1
    28    13    14    1
    29    13    15    1
    30    13    16    1
    31    11    12   ar
    32     4     5   ar
    33     5     6   ar
    34     6    17    1
    35    17    18   ar
    36    18    19   ar
    37    19    20   ar
    38    20    21   ar
    39    21    23    1
    40    23    24    1
    41    24    26    1
    42    26    27    1
    43    27    28    1
    44    28    29    1
    45    29    30    1
    46    30    31    1
    47    31    32    1
    48    32    33    1
    49    21    22   ar
    50    41    36   ar
    51     6     1   ar
    52    22    17   ar
    53    51    47   ar
    54    12     7   ar
    55    33    28    1
    56    45    46    1
    57    24    25    1
    58    31    34    1
