@<TRIPOS>MOLECULE
*****
 34 37 0 0 0
SMALL
GASTEIGER

@<TRIPOS>ATOM
      1 C         137.8890  139.5945  161.7888 C.3     1  UNL1        0.2722
      2 C         138.2182  140.2814  160.4966 C.2     1  UNL1        0.2701
      3 O         138.4671  139.4714  159.2589 O.2     1  UNL1       -0.2707
      4 N         138.2985  141.7782  160.4421 N.am    1  UNL1       -0.2663
      5 H         138.1352  142.3098  161.2545 H       1  UNL1        0.1564
      6 C         138.6278  142.4651  159.1499 C.ar    1  UNL1        0.1343
      7 C         139.8784  143.2851  159.0338 C.ar    1  UNL1        0.0354
      8 C         140.2076  143.9720  157.7417 C.ar    1  UNL1        0.0158
      9 C         139.2862  143.8389  156.5655 C.ar    1  UNL1        0.0769
     10 CL        139.6154  144.5258  155.2733 Cl      1  UNL1       -0.0806
     11 C         138.0355  143.0189  156.6816 C.ar    1  UNL1        0.1116
     12 N         137.7063  142.3320  157.9738 N.ar    1  UNL1       -0.2281
     13 C         138.0304  138.1056  161.9041 C.3     1  UNL1        0.1950
     14 O         138.7341  137.5084  163.0864 O.3     1  UNL1       -0.3519
     15 C         141.0401  137.9036  161.9567 C.3     1  UNL1        0.0320
     16 C         140.2310  137.5558  163.1710 C.3     1  UNL1        0.1156
     17 C         140.9187  137.2555  164.4697 C.3     1  UNL1        0.0320
     18 O         137.4184  140.3965  162.9658 O.3     1  UNL1       -0.4517
     19 C         138.4161  140.9964  163.9118 C.ar    1  UNL1        0.2312
     20 N         139.2045  142.2052  163.5030 N.ar    1  UNL1       -0.1892
     21 C         140.2021  142.8051  164.4489 C.ar    1  UNL1        0.2029
     22 N         140.4113  142.1961  165.8037 N.ar    1  UNL1       -0.2046
     23 C         139.6230  140.9873  166.2125 C.ar    1  UNL1        0.1715
     24 C         138.6253  140.3874  165.2665 C.ar    1  UNL1        0.1098
     25 C         137.9990  139.2038  165.9425 C.ar    1  UNL1        0.1283
     26 N         138.6095  139.0722  167.3063 N.ar    1  UNL1       -0.1619
     27 N         139.6132  140.1745  167.4731 N.ar    1  UNL1       -0.2111
     28 C         140.4587  140.4206  168.6874 C.ar    1  UNL1        0.0949
     29 C         139.8687  141.1014  169.8867 C.ar    1  UNL1        0.0201
     30 C         140.7142  141.3476  171.1010 C.ar    1  UNL1        0.0016
     31 C         142.1498  140.9130  171.1160 C.ar    1  UNL1        0.0010
     32 C         142.7398  140.2322  169.9167 C.ar    1  UNL1        0.0129
     33 C         141.8943  139.9860  168.7024 C.ar    1  UNL1        0.0753
     34 CL        142.4844  139.3053  167.5031 Cl      1  UNL1       -0.0807
@<TRIPOS>BOND
     1    15    16    1
     2    16    17    1
     3    16    14    1
     4    14    13    1
     5     1    13    1
     6     1    18    1
     7    18    19    1
     8    19    20   ar
     9    20    21   ar
    10    21    22   ar
    11    22    23   ar
    12    23    24   ar
    13    24    25   ar
    14    25    26   ar
    15    26    27   ar
    16    27    28    1
    17    28    29   ar
    18    29    30   ar
    19    30    31   ar
    20    31    32   ar
    21    32    33   ar
    22    33    34    1
    23     1     2    1
    24     2     3    2
    25     2     4   am
    26     4     6    1
    27     6     7   ar
    28     7     8   ar
    29     8     9   ar
    30     9    10    1
    31     9    11   ar
    32    11    12   ar
    33    24    19   ar
    34    33    28   ar
    35    12     6   ar
    36    27    23   ar
    37     4     5    1
@<TRIPOS>MOLECULE
*****
 34 37 0 0 0
SMALL
GASTEIGER

@<TRIPOS>ATOM
      1 C         137.7630  140.9259  161.5019 C.3     1  UNL1        0.2722
      2 C         138.7392  141.6636  160.6343 C.2     1  UNL1        0.2701
      3 O         140.2127  141.4430  160.8080 O.2     1  UNL1       -0.2707
      4 N         138.2420  142.6220  159.5931 N.am    1  UNL1       -0.2663
      5 H         137.2749  142.7668  159.4791 H       1  UNL1        0.1564
      6 C         139.2182  143.3597  158.7255 C.ar    1  UNL1        0.1343
      7 C         139.5253  142.8563  157.3462 C.ar    1  UNL1        0.0354
      8 C         140.5015  143.5940  156.4787 C.ar    1  UNL1        0.0158
      9 C         141.1706  144.8353  156.9903 C.ar    1  UNL1        0.0769
     10 CL        142.1468  145.5730  156.1227 Cl      1  UNL1       -0.0806
     11 C         140.8635  145.3387  158.3695 C.ar    1  UNL1        0.1116
     12 N         139.8872  144.6009  159.2371 N.ar    1  UNL1       -0.2281
     13 C         137.4305  139.4934  161.2065 C.3     1  UNL1        0.1950
     14 O         138.5183  138.5351  160.8210 O.3     1  UNL1       -0.3519
     15 C         138.9556  137.5281  163.1758 C.3     1  UNL1        0.0320
     16 C         139.4741  138.0281  161.8600 C.3     1  UNL1        0.1156
     17 C         140.9483  138.0212  161.5833 C.3     1  UNL1        0.0320
     18 O         137.1192  141.6207  162.6650 O.3     1  UNL1       -0.4517
     19 C         137.9507  142.4539  163.5948 C.ar    1  UNL1        0.2312
     20 N         138.0940  143.9278  163.3559 N.ar    1  UNL1       -0.1892
     21 C         138.9255  144.7608  164.2857 C.ar    1  UNL1        0.2029
     22 N         139.6137  144.1201  165.4543 N.ar    1  UNL1       -0.2046
     23 C         139.4704  142.6462  165.6932 C.ar    1  UNL1        0.1715
     24 C         138.6389  141.8131  164.7635 C.ar    1  UNL1        0.1098
     25 C         138.6811  140.3944  165.2490 C.ar    1  UNL1        0.1283
     26 N         139.5387  140.3508  166.4789 N.ar    1  UNL1       -0.1619
     27 N         140.0265  141.7425  166.7534 N.ar    1  UNL1       -0.2111
     28 C         140.9146  142.1575  167.8888 C.ar    1  UNL1        0.0949
     29 C         140.3156  142.7327  169.1379 C.ar    1  UNL1        0.0201
     30 C         141.2036  143.1477  170.2733 C.ar    1  UNL1        0.0016
     31 C         142.6907  142.9877  170.1596 C.ar    1  UNL1        0.0010
     32 C         143.2897  142.4125  168.9104 C.ar    1  UNL1        0.0129
     33 C         142.4017  141.9975  167.7750 C.ar    1  UNL1        0.0753
     34 CL        143.0007  141.4223  166.5259 Cl      1  UNL1       -0.0807
@<TRIPOS>BOND
     1    15    16    1
     2    16    17    1
     3    16    14    1
     4    14    13    1
     5     1    13    1
     6     1    18    1
     7    18    19    1
     8    19    20   ar
     9    20    21   ar
    10    21    22   ar
    11    22    23   ar
    12    23    24   ar
    13    24    25   ar
    14    25    26   ar
    15    26    27   ar
    16    27    28    1
    17    28    29   ar
    18    29    30   ar
    19    30    31   ar
    20    31    32   ar
    21    32    33   ar
    22    33    34    1
    23     1     2    1
    24     2     3    2
    25     2     4   am
    26     4     6    1
    27     6     7   ar
    28     7     8   ar
    29     8     9   ar
    30     9    10    1
    31     9    11   ar
    32    11    12   ar
    33    24    19   ar
    34    33    28   ar
    35    12     6   ar
    36    27    23   ar
    37     4     5    1
@<TRIPOS>MOLECULE
*****
 34 37 0 0 0
SMALL
GASTEIGER

@<TRIPOS>ATOM
      1 C         138.3499  139.0416  161.8125 C.3     1  UNL1        0.2722
      2 C         138.5133  139.1930  160.3291 C.2     1  UNL1        0.2701
      3 O         137.4648  139.9064  159.5280 O.2     1  UNL1       -0.2707
      4 N         139.7252  138.6311  159.6468 N.am    1  UNL1       -0.2663
      5 H         140.4134  138.1629  160.1726 H       1  UNL1        0.1564
      6 C         139.8886  138.7826  158.1635 C.ar    1  UNL1        0.1343
      7 C         140.4787  140.0406  157.5986 C.ar    1  UNL1        0.0354
      8 C         140.6422  140.1921  156.1152 C.ar    1  UNL1        0.0158
      9 C         140.2155  139.0855  155.1968 C.ar    1  UNL1        0.0769
     10 CL        140.3790  139.2369  153.7135 Cl      1  UNL1       -0.0806
     11 C         139.6254  137.8275  155.7617 C.ar    1  UNL1        0.1116
     12 N         139.4620  137.6760  157.2452 N.ar    1  UNL1       -0.2281
     13 C         138.7267  137.7526  162.4808 C.3     1  UNL1        0.1950
     14 O         140.1556  137.2963  162.4783 O.3     1  UNL1       -0.3519
     15 C         141.4124  137.5227  164.7409 C.3     1  UNL1        0.0320
     16 C         141.1673  137.9942  163.3382 C.3     1  UNL1        0.1156
     17 C         141.9339  139.1637  162.7954 C.3     1  UNL1        0.0320
     18 O         137.8096  140.1790  162.6276 O.3     1  UNL1       -0.4517
     19 C         138.7480  141.0702  163.3861 C.ar    1  UNL1        0.2312
     20 N         139.3750  142.2511  162.7061 N.ar    1  UNL1       -0.1892
     21 C         140.3133  143.1422  163.4647 C.ar    1  UNL1        0.2029
     22 N         140.6246  142.8525  164.9032 N.ar    1  UNL1       -0.2046
     23 C         139.9975  141.6717  165.5831 C.ar    1  UNL1        0.1715
     24 C         139.0592  140.7805  164.8246 C.ar    1  UNL1        0.1098
     25 C         138.5957  139.6976  165.7534 C.ar    1  UNL1        0.1283
     26 N         139.2476  139.9196  167.0859 N.ar    1  UNL1       -0.1619
     27 N         140.1140  141.1396  166.9807 N.ar    1  UNL1       -0.2111
     28 C         140.9500  141.7248  168.0800 C.ar    1  UNL1        0.0949
     29 C         140.4611  142.9239  168.8369 C.ar    1  UNL1        0.0201
     30 C         141.2971  143.5091  169.9363 C.ar    1  UNL1        0.0016
     31 C         142.6222  142.8952  170.2788 C.ar    1  UNL1        0.0010
     32 C         143.1111  141.6960  169.5219 C.ar    1  UNL1        0.0129
     33 C         142.2750  141.1108  168.4225 C.ar    1  UNL1        0.0753
     34 CL        142.7640  139.9116  167.6657 Cl      1  UNL1       -0.0807
@<TRIPOS>BOND
     1    15    16    1
     2    16    17    1
     3    16    14    1
     4    14    13    1
     5     1    13    1
     6     1    18    1
     7    18    19    1
     8    19    20   ar
     9    20    21   ar
    10    21    22   ar
    11    22    23   ar
    12    23    24   ar
    13    24    25   ar
    14    25    26   ar
    15    26    27   ar
    16    27    28    1
    17    28    29   ar
    18    29    30   ar
    19    30    31   ar
    20    31    32   ar
    21    32    33   ar
    22    33    34    1
    23     1     2    1
    24     2     3    2
    25     2     4   am
    26     4     6    1
    27     6     7   ar
    28     7     8   ar
    29     8     9   ar
    30     9    10    1
    31     9    11   ar
    32    11    12   ar
    33    24    19   ar
    34    33    28   ar
    35    12     6   ar
    36    27    23   ar
    37     4     5    1
@<TRIPOS>MOLECULE
*****
 34 37 0 0 0
SMALL
GASTEIGER

@<TRIPOS>ATOM
      1 C         142.9793  138.4059  156.7912 C.3     1  UNL1        0.2722
      2 C         143.4727  137.0469  156.3912 C.2     1  UNL1        0.2701
      3 O         144.7393  136.9120  155.5991 O.2     1  UNL1       -0.2707
      4 N         142.6993  135.8229  156.7833 N.am    1  UNL1       -0.2663
      5 H         141.8680  135.9115  157.3032 H       1  UNL1        0.1564
      6 C         143.1926  134.4640  156.3834 C.ar    1  UNL1        0.1343
      7 C         142.7421  133.8534  155.0896 C.ar    1  UNL1        0.0354
      8 C         143.2354  132.4944  154.6897 C.ar    1  UNL1        0.0158
      9 C         144.1793  131.7461  155.5836 C.ar    1  UNL1        0.0769
     10 CL        144.6726  130.3872  155.1837 Cl      1  UNL1       -0.0806
     11 C         144.6299  132.3568  156.8775 C.ar    1  UNL1        0.1116
     12 N         144.1365  133.7158  157.2774 N.ar    1  UNL1       -0.2281
     13 C         143.7306  139.6321  156.3646 C.3     1  UNL1        0.1950
     14 O         144.8875  140.1251  157.1821 O.3     1  UNL1       -0.3519
     15 C         144.3196  142.5328  157.9762 C.3     1  UNL1        0.0320
     16 C         145.2084  141.5899  157.2206 C.3     1  UNL1        0.1156
     17 C         146.4181  142.1118  156.5035 C.3     1  UNL1        0.0320
     18 O         141.7346  138.5386  157.6177 O.3     1  UNL1       -0.4517
     19 C         141.8079  138.4069  159.1102 C.ar    1  UNL1        0.2312
     20 N         143.1051  138.0402  159.7680 N.ar    1  UNL1       -0.1892
     21 C         143.1782  137.9085  161.2604 C.ar    1  UNL1        0.2029
     22 N         141.9542  138.1437  162.0950 N.ar    1  UNL1       -0.2046
     23 C         140.6571  138.5104  161.4372 C.ar    1  UNL1        0.1715
     24 C         140.5839  138.6421  159.9448 C.ar    1  UNL1        0.1098
     25 C         139.1768  139.0133  159.5806 C.ar    1  UNL1        0.1283
     26 N         138.3805  139.1110  160.8479 N.ar    1  UNL1       -0.1619
     27 N         139.2953  138.8003  161.9954 N.ar    1  UNL1       -0.2111
     28 C         138.9151  138.7824  163.4463 C.ar    1  UNL1        0.0949
     29 C         138.9697  137.4987  164.2202 C.ar    1  UNL1        0.0201
     30 C         138.5895  137.4809  165.6711 C.ar    1  UNL1        0.0016
     31 C         138.1547  138.7469  166.3481 C.ar    1  UNL1        0.0010
     32 C         138.1002  140.0306  165.5742 C.ar    1  UNL1        0.0129
     33 C         138.4804  140.0484  164.1233 C.ar    1  UNL1        0.0753
     34 CL        138.4258  141.3322  163.3494 Cl      1  UNL1       -0.0807
@<TRIPOS>BOND
     1    15    16    1
     2    16    17    1
     3    16    14    1
     4    14    13    1
     5     1    13    1
     6     1    18    1
     7    18    19    1
     8    19    20   ar
     9    20    21   ar
    10    21    22   ar
    11    22    23   ar
    12    23    24   ar
    13    24    25   ar
    14    25    26   ar
    15    26    27   ar
    16    27    28    1
    17    28    29   ar
    18    29    30   ar
    19    30    31   ar
    20    31    32   ar
    21    32    33   ar
    22    33    34    1
    23     1     2    1
    24     2     3    2
    25     2     4   am
    26     4     6    1
    27     6     7   ar
    28     7     8   ar
    29     8     9   ar
    30     9    10    1
    31     9    11   ar
    32    11    12   ar
    33    24    19   ar
    34    33    28   ar
    35    12     6   ar
    36    27    23   ar
    37     4     5    1
@<TRIPOS>MOLECULE
*****
 34 37 0 0 0
SMALL
GASTEIGER

@<TRIPOS>ATOM
      1 C         138.3266  140.4664  161.1345 C.3     1  UNL1        0.2722
      2 C         138.5173  141.7362  160.3589 C.2     1  UNL1        0.2701
      3 O         137.8842  143.0092  160.8369 O.2     1  UNL1       -0.2707
      4 N         139.3411  141.7328  159.1054 N.am    1  UNL1       -0.2663
      5 H         139.7566  140.8972  158.7917 H       1  UNL1        0.1564
      6 C         139.5318  143.0024  158.3299 C.ar    1  UNL1        0.1343
      7 C         140.3475  144.1199  158.9093 C.ar    1  UNL1        0.0354
      8 C         140.5383  145.3896  158.1338 C.ar    1  UNL1        0.0158
      9 C         139.9133  145.5418  156.7786 C.ar    1  UNL1        0.0769
     10 CL        140.1040  146.8115  156.0031 Cl      1  UNL1       -0.0806
     11 C         139.0976  144.4243  156.1992 C.ar    1  UNL1        0.1116
     12 N         138.9069  143.1546  156.9748 N.ar    1  UNL1       -0.2281
     13 C         138.8750  139.1746  160.6050 C.3     1  UNL1        0.1950
     14 O         140.3583  138.9672  160.5225 O.3     1  UNL1       -0.3519
     15 C         141.4198  137.6341  162.4836 C.3     1  UNL1        0.0320
     16 C         141.1819  138.9350  161.7758 C.3     1  UNL1        0.1156
     17 C         141.7676  140.2036  162.3212 C.3     1  UNL1        0.0320
     18 O         137.5875  140.4886  162.4396 O.3     1  UNL1       -0.4517
     19 C         138.3178  140.2100  163.7199 C.ar    1  UNL1        0.2312
     20 N         138.3991  138.8082  164.2473 N.ar    1  UNL1       -0.1892
     21 C         139.1293  138.5297  165.5276 C.ar    1  UNL1        0.2029
     22 N         139.7783  139.6531  166.2804 N.ar    1  UNL1       -0.2046
     23 C         139.6971  141.0549  165.7531 C.ar    1  UNL1        0.1715
     24 C         138.9668  141.3334  164.4728 C.ar    1  UNL1        0.1098
     25 C         139.0528  142.8061  164.2009 C.ar    1  UNL1        0.1283
     26 N         139.8363  143.4378  165.3132 N.ar    1  UNL1       -0.1619
     27 N         140.2345  142.3555  166.2725 N.ar    1  UNL1       -0.2111
     28 C         141.0303  142.5411  167.5303 C.ar    1  UNL1        0.0949
     29 C         140.3852  143.1411  168.7443 C.ar    1  UNL1        0.0201
     30 C         141.1810  143.3267  170.0022 C.ar    1  UNL1        0.0016
     31 C         142.6220  142.9124  170.0460 C.ar    1  UNL1        0.0010
     32 C         143.2671  142.3125  168.8320 C.ar    1  UNL1        0.0129
     33 C         142.4713  142.1268  167.5742 C.ar    1  UNL1        0.0753
     34 CL        143.1164  141.5269  166.3602 Cl      1  UNL1       -0.0807
@<TRIPOS>BOND
     1    15    16    1
     2    16    17    1
     3    16    14    1
     4    14    13    1
     5     1    13    1
     6     1    18    1
     7    18    19    1
     8    19    20   ar
     9    20    21   ar
    10    21    22   ar
    11    22    23   ar
    12    23    24   ar
    13    24    25   ar
    14    25    26   ar
    15    26    27   ar
    16    27    28    1
    17    28    29   ar
    18    29    30   ar
    19    30    31   ar
    20    31    32   ar
    21    32    33   ar
    22    33    34    1
    23     1     2    1
    24     2     3    2
    25     2     4   am
    26     4     6    1
    27     6     7   ar
    28     7     8   ar
    29     8     9   ar
    30     9    10    1
    31     9    11   ar
    32    11    12   ar
    33    24    19   ar
    34    33    28   ar
    35    12     6   ar
    36    27    23   ar
    37     4     5    1
@<TRIPOS>MOLECULE
*****
 34 37 0 0 0
SMALL
GASTEIGER

@<TRIPOS>ATOM
      1 C         139.3307  138.1253  161.4421 C.3     1  UNL1        0.2722
      2 C         140.0672  138.4106  160.1668 C.2     1  UNL1        0.2701
      3 O         139.3066  138.7819  158.9285 O.2     1  UNL1       -0.2707
      4 N         141.5642  138.3246  160.1300 N.am    1  UNL1       -0.2663
      5 H         142.0634  138.0809  160.9428 H       1  UNL1        0.1564
      6 C         142.3007  138.6099  158.8548 C.ar    1  UNL1        0.1343
      7 C         142.3924  137.5573  157.7901 C.ar    1  UNL1        0.0354
      8 C         143.1289  137.8426  156.5149 C.ar    1  UNL1        0.0158
      9 C         143.7737  139.1806  156.3044 C.ar    1  UNL1        0.0769
     10 CL        144.5102  139.4659  155.0292 Cl      1  UNL1       -0.0806
     11 C         143.6820  140.2331  157.3692 C.ar    1  UNL1        0.1116
     12 N         142.9455  139.9478  158.6444 N.ar    1  UNL1       -0.2281
     13 C         137.9227  138.6110  161.6199 C.3     1  UNL1        0.1950
     14 O         137.5910  140.0538  161.3783 O.3     1  UNL1       -0.3519
     15 C         139.5662  141.5713  162.1169 C.3     1  UNL1        0.0320
     16 C         138.1476  141.1131  162.2828 C.3     1  UNL1        0.1156
     17 C         137.2857  141.7140  163.3533 C.3     1  UNL1        0.0320
     18 O         140.0022  137.3542  162.5396 O.3     1  UNL1       -0.4517
     19 C         140.7904  138.0779  163.5908 C.ar    1  UNL1        0.2312
     20 N         142.2812  138.1879  163.4675 N.ar    1  UNL1       -0.1892
     21 C         143.0693  138.9116  164.5188 C.ar    1  UNL1        0.2029
     22 N         142.3666  139.5252  165.6933 N.ar    1  UNL1       -0.2046
     23 C         140.8758  139.4151  165.8167 C.ar    1  UNL1        0.1715
     24 C         140.0877  138.6915  164.7654 C.ar    1  UNL1        0.1098
     25 C         138.6396  138.7443  165.1532 C.ar    1  UNL1        0.1283
     26 N         138.5327  139.5006  166.4442 N.ar    1  UNL1       -0.1619
     27 N         139.9148  139.9152  166.8542 N.ar    1  UNL1       -0.2111
     28 C         140.2730  140.6933  168.0856 C.ar    1  UNL1        0.0949
     29 C         140.4298  139.9873  169.3997 C.ar    1  UNL1        0.0201
     30 C         140.7880  140.7654  170.6310 C.ar    1  UNL1        0.0016
     31 C         140.9894  142.2495  170.5483 C.ar    1  UNL1        0.0010
     32 C         140.8326  142.9555  169.2342 C.ar    1  UNL1        0.0129
     33 C         140.4744  142.1774  168.0028 C.ar    1  UNL1        0.0753
     34 CL        140.3175  142.8835  166.6887 Cl      1  UNL1       -0.0807
@<TRIPOS>BOND
     1    15    16    1
     2    16    17    1
     3    16    14    1
     4    14    13    1
     5     1    13    1
     6     1    18    1
     7    18    19    1
     8    19    20   ar
     9    20    21   ar
    10    21    22   ar
    11    22    23   ar
    12    23    24   ar
    13    24    25   ar
    14    25    26   ar
    15    26    27   ar
    16    27    28    1
    17    28    29   ar
    18    29    30   ar
    19    30    31   ar
    20    31    32   ar
    21    32    33   ar
    22    33    34    1
    23     1     2    1
    24     2     3    2
    25     2     4   am
    26     4     6    1
    27     6     7   ar
    28     7     8   ar
    29     8     9   ar
    30     9    10    1
    31     9    11   ar
    32    11    12   ar
    33    24    19   ar
    34    33    28   ar
    35    12     6   ar
    36    27    23   ar
    37     4     5    1
@<TRIPOS>MOLECULE
*****
 34 37 0 0 0
SMALL
GASTEIGER

@<TRIPOS>ATOM
      1 C         141.0952  145.0874  160.3200 C.3     1  UNL1        0.2722
      2 C         141.8565  143.8074  160.4997 C.2     1  UNL1        0.2701
      3 O         143.3439  143.8400  160.6910 O.2     1  UNL1       -0.2707
      4 N         141.1304  142.4949  160.4881 N.am    1  UNL1       -0.2663
      5 H         140.1541  142.4736  160.3626 H       1  UNL1        0.1564
      6 C         141.8916  141.2150  160.6678 C.ar    1  UNL1        0.1343
      7 C         141.8725  140.5106  161.9920 C.ar    1  UNL1        0.0354
      8 C         142.6337  139.2307  162.1717 C.ar    1  UNL1        0.0158
      9 C         143.4140  138.6551  161.0272 C.ar    1  UNL1        0.0769
     10 CL        144.1752  137.3752  161.2069 Cl      1  UNL1       -0.0806
     11 C         143.4331  139.3595  159.7030 C.ar    1  UNL1        0.1116
     12 N         142.6718  140.6395  159.5234 N.ar    1  UNL1       -0.2281
     13 C         140.8916  145.6522  158.9455 C.3     1  UNL1        0.1950
     14 O         142.0630  145.8256  158.0247 O.3     1  UNL1       -0.3519
     15 C         141.7929  145.4167  155.4733 C.3     1  UNL1        0.0320
     16 C         142.2155  144.9330  156.8288 C.3     1  UNL1        0.1156
     17 C         142.7906  143.5569  156.9884 C.3     1  UNL1        0.0320
     18 O         140.5376  145.8024  161.5149 O.3     1  UNL1       -0.4517
     19 C         139.7606  145.0423  162.5487 C.ar    1  UNL1        0.2312
     20 N         138.2658  144.9616  162.4541 N.ar    1  UNL1       -0.1892
     21 C         137.4890  144.2015  163.4879 C.ar    1  UNL1        0.2029
     22 N         138.2069  143.5221  164.6162 N.ar    1  UNL1       -0.2046
     23 C         139.7017  143.6028  164.7107 C.ar    1  UNL1        0.1715
     24 C         140.4786  144.3629  163.6770 C.ar    1  UNL1        0.1098
     25 C         141.9337  144.2692  164.0289 C.ar    1  UNL1        0.1283
     26 N         142.0561  143.4511  165.2802 N.ar    1  UNL1       -0.1619
     27 N         140.6767  143.0393  165.7016 N.ar    1  UNL1       -0.2111
     28 C         140.3325  142.2096  166.9029 C.ar    1  UNL1        0.0949
     29 C         140.4429  142.7987  168.2779 C.ar    1  UNL1        0.0201
     30 C         140.0987  141.9690  169.4792 C.ar    1  UNL1        0.0016
     31 C         139.6443  140.5501  169.3056 C.ar    1  UNL1        0.0010
     32 C         139.5340  139.9610  167.9306 C.ar    1  UNL1        0.0129
     33 C         139.8781  140.7907  166.7292 C.ar    1  UNL1        0.0753
     34 CL        139.7677  140.2015  165.3542 Cl      1  UNL1       -0.0807
@<TRIPOS>BOND
     1    15    16    1
     2    16    17    1
     3    16    14    1
     4    14    13    1
     5     1    13    1
     6     1    18    1
     7    18    19    1
     8    19    20   ar
     9    20    21   ar
    10    21    22   ar
    11    22    23   ar
    12    23    24   ar
    13    24    25   ar
    14    25    26   ar
    15    26    27   ar
    16    27    28    1
    17    28    29   ar
    18    29    30   ar
    19    30    31   ar
    20    31    32   ar
    21    32    33   ar
    22    33    34    1
    23     1     2    1
    24     2     3    2
    25     2     4   am
    26     4     6    1
    27     6     7   ar
    28     7     8   ar
    29     8     9   ar
    30     9    10    1
    31     9    11   ar
    32    11    12   ar
    33    24    19   ar
    34    33    28   ar
    35    12     6   ar
    36    27    23   ar
    37     4     5    1
@<TRIPOS>MOLECULE
*****
 34 37 0 0 0
SMALL
GASTEIGER

@<TRIPOS>ATOM
      1 C         139.0128  141.8513  161.5176 C.3     1  UNL1        0.2722
      2 C         139.7238  142.4291  160.3298 C.2     1  UNL1        0.2701
      3 O         141.1633  142.0902  160.0795 O.2     1  UNL1       -0.2707
      4 N         138.9950  143.3457  159.3924 N.am    1  UNL1       -0.2663
      5 H         138.0502  143.5681  159.5567 H       1  UNL1        0.1564
      6 C         139.7059  143.9235  158.2047 C.ar    1  UNL1        0.1343
      7 C         139.5828  143.2641  156.8630 C.ar    1  UNL1        0.0354
      8 C         140.2937  143.8419  155.6753 C.ar    1  UNL1        0.0158
      9 C         141.1278  145.0791  155.8292 C.ar    1  UNL1        0.0769
     10 CL        141.8386  145.6569  154.6414 Cl      1  UNL1       -0.0806
     11 C         141.2508  145.7386  157.1708 C.ar    1  UNL1        0.1116
     12 N         140.5399  145.1607  158.3586 N.ar    1  UNL1       -0.2281
     13 C         137.8587  142.5867  162.1317 C.3     1  UNL1        0.1950
     14 O         137.8933  144.0826  162.2373 O.3     1  UNL1       -0.3519
     15 C         140.0583  145.4758  162.5862 C.3     1  UNL1        0.0320
     16 C         138.8768  144.7471  163.1545 C.3     1  UNL1        0.1156
     17 C         138.6786  144.6831  164.6399 C.3     1  UNL1        0.0320
     18 O         139.4560  140.5380  162.0912 O.3     1  UNL1       -0.4517
     19 C         139.3698  140.2979  163.5694 C.ar    1  UNL1        0.2312
     20 N         138.3875  139.3024  164.1115 N.ar    1  UNL1       -0.1892
     21 C         138.3013  139.0623  165.5896 C.ar    1  UNL1        0.2029
     22 N         139.1975  139.8178  166.5257 N.ar    1  UNL1       -0.2046
     23 C         140.1798  140.8134  165.9836 C.ar    1  UNL1        0.1715
     24 C         140.2659  141.0535  164.5055 C.ar    1  UNL1        0.1098
     25 C         141.3240  142.0892  164.2649 C.ar    1  UNL1        0.1283
     26 N         141.8917  142.4892  165.5944 N.ar    1  UNL1       -0.1619
     27 N         141.1846  141.7007  166.6566 N.ar    1  UNL1       -0.2111
     28 C         141.4377  141.7848  168.1327 C.ar    1  UNL1        0.0949
     29 C         140.8853  142.9329  168.9242 C.ar    1  UNL1        0.0201
     30 C         141.1384  143.0170  170.4003 C.ar    1  UNL1        0.0016
     31 C         141.9441  141.9530  171.0849 C.ar    1  UNL1        0.0010
     32 C         142.4965  140.8048  170.2934 C.ar    1  UNL1        0.0129
     33 C         142.2434  140.7207  168.8173 C.ar    1  UNL1        0.0753
     34 CL        142.7958  139.5726  168.0258 Cl      1  UNL1       -0.0807
@<TRIPOS>BOND
     1    15    16    1
     2    16    17    1
     3    16    14    1
     4    14    13    1
     5     1    13    1
     6     1    18    1
     7    18    19    1
     8    19    20   ar
     9    20    21   ar
    10    21    22   ar
    11    22    23   ar
    12    23    24   ar
    13    24    25   ar
    14    25    26   ar
    15    26    27   ar
    16    27    28    1
    17    28    29   ar
    18    29    30   ar
    19    30    31   ar
    20    31    32   ar
    21    32    33   ar
    22    33    34    1
    23     1     2    1
    24     2     3    2
    25     2     4   am
    26     4     6    1
    27     6     7   ar
    28     7     8   ar
    29     8     9   ar
    30     9    10    1
    31     9    11   ar
    32    11    12   ar
    33    24    19   ar
    34    33    28   ar
    35    12     6   ar
    36    27    23   ar
    37     4     5    1
@<TRIPOS>MOLECULE
*****
 34 37 0 0 0
SMALL
GASTEIGER

@<TRIPOS>ATOM
      1 C         140.4559  144.5790  160.2736 C.3     1  UNL1        0.2722
      2 C         140.7762  145.1777  158.9360 C.2     1  UNL1        0.2701
      3 O         142.0885  145.8713  158.7196 O.2     1  UNL1       -0.2707
      4 N         139.7843  145.0828  157.8148 N.am    1  UNL1       -0.2663
      5 H         138.9230  144.6276  157.9569 H       1  UNL1        0.1564
      6 C         140.1046  145.6815  156.4773 C.ar    1  UNL1        0.1343
      7 C         139.4955  146.9925  156.0772 C.ar    1  UNL1        0.0354
      8 C         139.8158  147.5912  154.7397 C.ar    1  UNL1        0.0158
      9 C         140.7452  146.8788  153.8022 C.ar    1  UNL1        0.0769
     10 CL        141.0655  147.4774  152.4647 Cl      1  UNL1       -0.0806
     11 C         141.3543  145.5677  154.2024 C.ar    1  UNL1        0.1116
     12 N         141.0339  144.9691  155.5400 N.ar    1  UNL1       -0.2281
     13 C         139.6033  143.3479  160.3594 C.3     1  UNL1        0.1950
     14 O         138.4460  143.3020  161.3125 O.3     1  UNL1       -0.3519
     15 C         138.1090  140.7436  161.0103 C.3     1  UNL1        0.0320
     16 C         137.9607  141.9843  161.8401 C.3     1  UNL1        0.1156
     17 C         137.3272  141.9074  163.1976 C.3     1  UNL1        0.0320
     18 O         140.9881  145.2115  161.5252 O.3     1  UNL1       -0.4517
     19 C         141.8679  144.4222  162.4488 C.ar    1  UNL1        0.2312
     20 N         143.2937  144.1465  162.0731 N.ar    1  UNL1       -0.1892
     21 C         144.1734  143.3572  162.9967 C.ar    1  UNL1        0.2029
     22 N         143.6274  142.8436  164.2959 N.ar    1  UNL1       -0.2046
     23 C         142.2016  143.1192  164.6716 C.ar    1  UNL1        0.1715
     24 C         141.3219  143.9085  163.7481 C.ar    1  UNL1        0.1098
     25 C         139.9673  144.0218  164.3823 C.ar    1  UNL1        0.1283
     26 N         140.0099  143.3025  165.6979 N.ar    1  UNL1       -0.1619
     27 N         141.3908  142.7447  165.8767 N.ar    1  UNL1       -0.2111
     28 C         141.8757  141.9516  167.0539 C.ar    1  UNL1        0.0949
     29 C         142.8258  142.5709  168.0355 C.ar    1  UNL1        0.0201
     30 C         143.3108  141.7778  169.2127 C.ar    1  UNL1        0.0016
     31 C         142.8456  140.3652  169.4083 C.ar    1  UNL1        0.0010
     32 C         141.8955  139.7458  168.4266 C.ar    1  UNL1        0.0129
     33 C         141.4106  140.5390  167.2494 C.ar    1  UNL1        0.0753
     34 CL        140.4605  139.9195  166.2678 Cl      1  UNL1       -0.0807
@<TRIPOS>BOND
     1    15    16    1
     2    16    17    1
     3    16    14    1
     4    14    13    1
     5     1    13    1
     6     1    18    1
     7    18    19    1
     8    19    20   ar
     9    20    21   ar
    10    21    22   ar
    11    22    23   ar
    12    23    24   ar
    13    24    25   ar
    14    25    26   ar
    15    26    27   ar
    16    27    28    1
    17    28    29   ar
    18    29    30   ar
    19    30    31   ar
    20    31    32   ar
    21    32    33   ar
    22    33    34    1
    23     1     2    1
    24     2     3    2
    25     2     4   am
    26     4     6    1
    27     6     7   ar
    28     7     8   ar
    29     8     9   ar
    30     9    10    1
    31     9    11   ar
    32    11    12   ar
    33    24    19   ar
    34    33    28   ar
    35    12     6   ar
    36    27    23   ar
    37     4     5    1
