@<TRIPOS>MOLECULE
*****
 24 26 0 0 0
SMALL
GASTEIGER

@<TRIPOS>ATOM
      1 C         143.3229  142.2895  167.5011 C.3     1  UNL1        0.0966
      2 C         143.1094  141.9575  166.0539 C.2     1  UNL1        0.2451
      3 O         144.2624  142.0042  165.0956 O.2     1  UNL1       -0.2731
      4 N         141.7428  141.5788  165.5650 N.am    1  UNL1       -0.1782
      5 N         141.3784  141.2230  164.1542 N.2     1  UNL1       -0.1797
      6 C         139.9110  140.9138  164.1183 C.2     1  UNL1        0.0808
      7 C         139.3686  141.0784  165.5071 C.3     1  UNL1        0.0738
      8 C         140.5007  141.4894  166.4012 C.3     1  UNL1        0.1273
      9 C         139.1242  140.5106  162.9065 C.ar    1  UNL1        0.0448
     10 C         139.0167  141.4442  161.7374 C.ar    1  UNL1        0.0331
     11 C         138.2300  141.0410  160.5256 C.ar    1  UNL1        0.1403
     12 F         138.1224  141.9746  159.3564 F       1  UNL1       -0.2042
     13 C         137.5508  139.7043  160.4829 C.ar    1  UNL1        0.0319
     14 C         137.6583  138.7707  161.6520 C.ar    1  UNL1        0.0320
     15 C         138.4450  139.1739  162.8638 C.ar    1  UNL1        0.1414
     16 F         138.5526  138.2403  164.0330 F       1  UNL1       -0.2041
     17 C         140.4071  141.7631  167.8731 C.ar    1  UNL1        0.0011
     18 C         140.3905  140.6234  168.8482 C.ar    1  UNL1       -0.0024
     19 C         140.2969  140.8970  170.3201 C.ar    1  UNL1        0.0028
     20 C         140.2199  142.3103  170.8167 C.ar    1  UNL1        0.0366
     21 C         140.2364  143.4500  169.8416 C.ar    1  UNL1        0.1334
     22 O         140.1593  144.8633  170.3383 O.3     1  UNL1       -0.5055
     23 C         140.3300  143.1763  168.3698 C.ar    1  UNL1        0.0340
     24 H         140.1009  145.0342  171.2577 H       1  UNL1        0.2922
@<TRIPOS>BOND
     1     1     2    1
     2     2     3    2
     3     2     4   am
     4     4     5    1
     5     5     6    2
     6     6     9    1
     7     9    10   ar
     8    10    11   ar
     9    11    12    1
    10    11    13   ar
    11    13    14   ar
    12    14    15   ar
    13    15    16    1
    14     6     7    1
    15     7     8    1
    16     8    17    1
    17    17    18   ar
    18    18    19   ar
    19    19    20   ar
    20    20    21   ar
    21    21    22    1
    22    21    23   ar
    23     8     4    1
    24    23    17   ar
    25    15     9   ar
    26    22    24    1
@<TRIPOS>MOLECULE
*****
 24 26 0 0 0
SMALL
GASTEIGER

@<TRIPOS>ATOM
      1 C         142.9750  139.5260  167.9297 C.3     1  UNL1        0.0966
      2 C         142.7435  139.1754  166.4897 C.2     1  UNL1        0.2451
      3 O         143.7685  138.3797  165.7373 O.2     1  UNL1       -0.2731
      4 N         141.4869  139.6206  165.8021 N.am    1  UNL1       -0.1782
      5 N         141.1189  139.3469  164.3740 N.2     1  UNL1       -0.1797
      6 C         139.7822  139.9747  164.1112 C.2     1  UNL1        0.0808
      7 C         139.3241  140.6365  165.3769 C.3     1  UNL1        0.0738
      8 C         140.3776  140.4177  166.4220 C.3     1  UNL1        0.1273
      9 C         139.0349  139.9459  162.8109 C.ar    1  UNL1        0.0448
     10 C         138.9411  141.1858  161.9720 C.ar    1  UNL1        0.0331
     11 C         138.1938  141.1569  160.6718 C.ar    1  UNL1        0.1403
     12 F         138.1000  142.3969  159.8329 F       1  UNL1       -0.2042
     13 C         137.5403  139.8880  160.2104 C.ar    1  UNL1        0.0319
     14 C         137.6340  138.6481  161.0492 C.ar    1  UNL1        0.0320
     15 C         138.3813  138.6770  162.3495 C.ar    1  UNL1        0.1414
     16 F         138.4751  137.4370  163.1884 F       1  UNL1       -0.2041
     17 C         140.3302  140.9095  167.8383 C.ar    1  UNL1        0.0011
     18 C         140.6241  142.3485  168.1427 C.ar    1  UNL1       -0.0024
     19 C         140.5767  142.8404  169.5590 C.ar    1  UNL1        0.0028
     20 C         140.2353  141.8932  170.6708 C.ar    1  UNL1        0.0366
     21 C         139.9413  140.4540  170.3664 C.ar    1  UNL1        0.1334
     22 O         139.5999  139.5068  171.4782 O.3     1  UNL1       -0.5055
     23 C         139.9888  139.9623  168.9501 C.ar    1  UNL1        0.0340
     24 H         139.5703  139.8141  172.3629 H       1  UNL1        0.2922
@<TRIPOS>BOND
     1     1     2    1
     2     2     3    2
     3     2     4   am
     4     4     5    1
     5     5     6    2
     6     6     9    1
     7     9    10   ar
     8    10    11   ar
     9    11    12    1
    10    11    13   ar
    11    13    14   ar
    12    14    15   ar
    13    15    16    1
    14     6     7    1
    15     7     8    1
    16     8    17    1
    17    17    18   ar
    18    18    19   ar
    19    19    20   ar
    20    20    21   ar
    21    21    22    1
    22    21    23   ar
    23     8     4    1
    24    23    17   ar
    25    15     9   ar
    26    22    24    1
@<TRIPOS>MOLECULE
*****
 24 26 0 0 0
SMALL
GASTEIGER

@<TRIPOS>ATOM
      1 C         142.7839  139.2527  167.6762 C.3     1  UNL1        0.0966
      2 C         142.9023  139.7755  166.2752 C.2     1  UNL1        0.2451
      3 O         143.7890  139.0779  165.2868 O.2     1  UNL1       -0.2731
      4 N         142.1338  140.9958  165.8627 N.am    1  UNL1       -0.1782
      5 N         142.1516  141.6315  164.5042 N.2     1  UNL1       -0.1797
      6 C         141.2414  142.8234  164.5381 C.2     1  UNL1        0.0808
      7 C         140.6611  142.9243  165.9176 C.3     1  UNL1        0.0738
      8 C         141.2126  141.7948  166.7363 C.3     1  UNL1        0.1273
      9 C         140.9608  143.7514  163.3935 C.ar    1  UNL1        0.0448
     10 C         141.6972  143.5872  162.0971 C.ar    1  UNL1        0.0331
     11 C         141.4166  144.5152  160.9525 C.ar    1  UNL1        0.1403
     12 F         142.1530  144.3511  159.6560 F       1  UNL1       -0.2042
     13 C         140.3996  145.6073  161.1044 C.ar    1  UNL1        0.0319
     14 C         139.6633  145.7715  162.4008 C.ar    1  UNL1        0.0320
     15 C         139.9439  144.8435  163.5454 C.ar    1  UNL1        0.1414
     16 F         139.2075  145.0076  164.8419 F       1  UNL1       -0.2041
     17 C         140.8981  141.5137  168.1757 C.ar    1  UNL1        0.0011
     18 C         139.7350  140.6360  168.5318 C.ar    1  UNL1       -0.0024
     19 C         139.4205  140.3548  169.9713 C.ar    1  UNL1        0.0028
     20 C         140.2692  140.9514  171.0546 C.ar    1  UNL1        0.0366
     21 C         141.4325  141.8291  170.6986 C.ar    1  UNL1        0.1334
     22 O         142.2811  142.4256  171.7821 O.3     1  UNL1       -0.5055
     23 C         141.7468  142.1102  169.2592 C.ar    1  UNL1        0.0340
     24 H         142.0847  142.2499  172.6813 H       1  UNL1        0.2922
@<TRIPOS>BOND
     1     1     2    1
     2     2     3    2
     3     2     4   am
     4     4     5    1
     5     5     6    2
     6     6     9    1
     7     9    10   ar
     8    10    11   ar
     9    11    12    1
    10    11    13   ar
    11    13    14   ar
    12    14    15   ar
    13    15    16    1
    14     6     7    1
    15     7     8    1
    16     8    17    1
    17    17    18   ar
    18    18    19   ar
    19    19    20   ar
    20    20    21   ar
    21    21    22    1
    22    21    23   ar
    23     8     4    1
    24    23    17   ar
    25    15     9   ar
    26    22    24    1
@<TRIPOS>MOLECULE
*****
 24 26 0 0 0
SMALL
GASTEIGER

@<TRIPOS>ATOM
      1 C         139.3023  139.6981  167.7851 C.3     1  UNL1        0.0966
      2 C         139.0676  140.0495  166.3459 C.2     1  UNL1        0.2451
      3 O         138.1424  139.2144  165.5112 O.2     1  UNL1       -0.2731
      4 N         139.7581  141.2360  165.7413 N.am    1  UNL1       -0.1782
      5 N         139.6221  141.7075  164.3238 N.2     1  UNL1       -0.1797
      6 C         140.4858  142.9222  164.1545 C.2     1  UNL1        0.0808
      7 C         141.1554  143.2014  165.4673 C.3     1  UNL1        0.0738
      8 C         140.7057  142.1593  166.4480 C.3     1  UNL1        0.1273
      9 C         140.6507  143.7179  162.8937 C.ar    1  UNL1        0.0448
     10 C         139.8390  144.9610  162.6797 C.ar    1  UNL1        0.0331
     11 C         140.0040  145.7567  161.4189 C.ar    1  UNL1        0.1403
     12 F         139.1922  146.9998  161.2049 F       1  UNL1       -0.2042
     13 C         140.9807  145.3093  160.3721 C.ar    1  UNL1        0.0319
     14 C         141.7924  144.0662  160.5860 C.ar    1  UNL1        0.0320
     15 C         141.6274  143.2705  161.8468 C.ar    1  UNL1        0.1414
     16 F         142.4392  142.0274  162.0608 F       1  UNL1       -0.2041
     17 C         141.1293  142.0583  167.8834 C.ar    1  UNL1        0.0011
     18 C         142.4514  141.4426  168.2337 C.ar    1  UNL1       -0.0024
     19 C         142.8750  141.3415  169.6691 C.ar    1  UNL1        0.0028
     20 C         141.9763  141.8562  170.7542 C.ar    1  UNL1        0.0366
     21 C         140.6541  142.4720  170.4039 C.ar    1  UNL1        0.1334
     22 O         139.7555  142.9867  171.4891 O.3     1  UNL1       -0.5055
     23 C         140.2307  142.5730  168.9686 C.ar    1  UNL1        0.0340
     24 H         140.0201  142.9236  172.3857 H       1  UNL1        0.2922
@<TRIPOS>BOND
     1     1     2    1
     2     2     3    2
     3     2     4   am
     4     4     5    1
     5     5     6    2
     6     6     9    1
     7     9    10   ar
     8    10    11   ar
     9    11    12    1
    10    11    13   ar
    11    13    14   ar
    12    14    15   ar
    13    15    16    1
    14     6     7    1
    15     7     8    1
    16     8    17    1
    17    17    18   ar
    18    18    19   ar
    19    19    20   ar
    20    20    21   ar
    21    21    22    1
    22    21    23   ar
    23     8     4    1
    24    23    17   ar
    25    15     9   ar
    26    22    24    1
@<TRIPOS>MOLECULE
*****
 24 26 0 0 0
SMALL
GASTEIGER

@<TRIPOS>ATOM
      1 C         139.0374  139.9505  168.4486 C.3     1  UNL1        0.0966
      2 C         138.9296  139.3873  167.0625 C.2     1  UNL1        0.2451
      3 O         137.6404  138.7763  166.5993 O.2     1  UNL1       -0.2731
      4 N         140.1110  139.4353  166.1395 N.am    1  UNL1       -0.1782
      5 N         140.1530  138.9150  164.7332 N.2     1  UNL1       -0.1797
      6 C         141.5259  139.1701  164.1854 C.2     1  UNL1        0.0808
      7 C         142.3324  139.8479  165.2530 C.3     1  UNL1        0.0738
      8 C         141.4581  140.0119  166.4607 C.3     1  UNL1        0.1273
      9 C         142.0076  138.8104  162.8110 C.ar    1  UNL1        0.0448
     10 C         141.0294  138.6952  161.6797 C.ar    1  UNL1        0.0331
     11 C         141.5111  138.3355  160.3055 C.ar    1  UNL1        0.1403
     12 F         140.5330  138.2203  159.1741 F       1  UNL1       -0.2042
     13 C         142.9710  138.0910  160.0626 C.ar    1  UNL1        0.0319
     14 C         143.9491  138.2061  161.1939 C.ar    1  UNL1        0.0320
     15 C         143.4674  138.5658  162.5681 C.ar    1  UNL1        0.1414
     16 F         144.4456  138.6810  163.6995 F       1  UNL1       -0.2041
     17 C         141.8601  140.6418  167.7613 C.ar    1  UNL1        0.0011
     18 C         141.6099  142.1019  167.9965 C.ar    1  UNL1       -0.0024
     19 C         142.0119  142.7318  169.2971 C.ar    1  UNL1        0.0028
     20 C         142.6641  141.9016  170.3625 C.ar    1  UNL1        0.0366
     21 C         142.9144  140.4413  170.1274 C.ar    1  UNL1        0.1334
     22 O         143.5666  139.6111  171.1929 O.3     1  UNL1       -0.5055
     23 C         142.5123  139.8115  168.8268 C.ar    1  UNL1        0.0340
     24 H         143.8177  140.0046  172.0053 H       1  UNL1        0.2922
@<TRIPOS>BOND
     1     1     2    1
     2     2     3    2
     3     2     4   am
     4     4     5    1
     5     5     6    2
     6     6     9    1
     7     9    10   ar
     8    10    11   ar
     9    11    12    1
    10    11    13   ar
    11    13    14   ar
    12    14    15   ar
    13    15    16    1
    14     6     7    1
    15     7     8    1
    16     8    17    1
    17    17    18   ar
    18    18    19   ar
    19    19    20   ar
    20    20    21   ar
    21    21    22    1
    22    21    23   ar
    23     8     4    1
    24    23    17   ar
    25    15     9   ar
    26    22    24    1
@<TRIPOS>MOLECULE
*****
 24 26 0 0 0
SMALL
GASTEIGER

@<TRIPOS>ATOM
      1 C         138.7017  141.5445  162.1632 C.3     1  UNL1        0.0966
      2 C         138.8357  140.7261  163.4131 C.2     1  UNL1        0.2451
      3 O         138.2796  139.3338  163.4612 O.2     1  UNL1       -0.2731
      4 N         139.5257  141.3000  164.6150 N.am    1  UNL1       -0.1782
      5 N         139.7341  140.6048  165.9277 N.2     1  UNL1       -0.1797
      6 C         140.4657  141.5451  166.8392 C.2     1  UNL1        0.0808
      7 C         140.7094  142.8214  166.0898 C.3     1  UNL1        0.0738
      8 C         140.1284  142.6700  164.7152 C.3     1  UNL1        0.1273
      9 C         140.8807  141.2592  168.2520 C.ar    1  UNL1        0.0448
     10 C         141.5055  139.9401  168.5978 C.ar    1  UNL1        0.0331
     11 C         141.9205  139.6542  170.0106 C.ar    1  UNL1        0.1403
     12 F         142.5453  138.3351  170.3565 F       1  UNL1       -0.2042
     13 C         141.7107  140.6874  171.0776 C.ar    1  UNL1        0.0319
     14 C         141.0858  142.0065  170.7318 C.ar    1  UNL1        0.0320
     15 C         140.6709  142.2924  169.3190 C.ar    1  UNL1        0.1414
     16 F         140.0460  143.6115  168.9731 F       1  UNL1       -0.2041
     17 C         140.1469  143.7065  163.6310 C.ar    1  UNL1        0.0011
     18 C         139.0394  144.7137  163.5374 C.ar    1  UNL1       -0.0024
     19 C         139.0579  145.7502  162.4532 C.ar    1  UNL1        0.0028
     20 C         140.1840  145.7795  161.4629 C.ar    1  UNL1        0.0366
     21 C         141.2916  144.7723  161.5565 C.ar    1  UNL1        0.1334
     22 O         142.4177  144.8016  160.5660 O.3     1  UNL1       -0.5055
     23 C         141.2730  143.7358  162.6406 C.ar    1  UNL1        0.0340
     24 H         142.4293  145.4491  159.8888 H       1  UNL1        0.2922
@<TRIPOS>BOND
     1     1     2    1
     2     2     3    2
     3     2     4   am
     4     4     5    1
     5     5     6    2
     6     6     9    1
     7     9    10   ar
     8    10    11   ar
     9    11    12    1
    10    11    13   ar
    11    13    14   ar
    12    14    15   ar
    13    15    16    1
    14     6     7    1
    15     7     8    1
    16     8    17    1
    17    17    18   ar
    18    18    19   ar
    19    19    20   ar
    20    20    21   ar
    21    21    22    1
    22    21    23   ar
    23     8     4    1
    24    23    17   ar
    25    15     9   ar
    26    22    24    1
@<TRIPOS>MOLECULE
*****
 24 26 0 0 0
SMALL
GASTEIGER

@<TRIPOS>ATOM
      1 C         139.2955  139.5450  167.7824 C.3     1  UNL1        0.0966
      2 C         139.0126  139.9588  166.3686 C.2     1  UNL1        0.2451
      3 O         138.0349  139.1791  165.5403 O.2     1  UNL1       -0.2731
      4 N         139.7075  141.1522  165.7831 N.am    1  UNL1       -0.1782
      5 N         139.5271  141.6828  164.3917 N.2     1  UNL1       -0.1797
      6 C         140.4129  142.8832  164.2349 C.2     1  UNL1        0.0808
      7 C         141.1407  143.0945  165.5294 C.3     1  UNL1        0.0738
      8 C         140.7047  142.0247  166.4862 C.3     1  UNL1        0.1273
      9 C         140.5472  143.7245  163.0003 C.ar    1  UNL1        0.0448
     10 C         141.4682  143.2954  161.8969 C.ar    1  UNL1        0.0331
     11 C         141.6025  144.1368  160.6624 C.ar    1  UNL1        0.1403
     12 F         142.5234  143.7077  159.5588 F       1  UNL1       -0.2042
     13 C         140.8158  145.4072  160.5313 C.ar    1  UNL1        0.0319
     14 C         139.8949  145.8363  161.6348 C.ar    1  UNL1        0.0320
     15 C         139.7606  144.9950  162.8693 C.ar    1  UNL1        0.1414
     16 F         138.8396  145.4241  163.9729 F       1  UNL1       -0.2041
     17 C         141.1822  141.8569  167.8983 C.ar    1  UNL1        0.0011
     18 C         142.4912  141.1774  168.1716 C.ar    1  UNL1       -0.0024
     19 C         142.9687  141.0095  169.5837 C.ar    1  UNL1        0.0028
     20 C         142.1371  141.5212  170.7223 C.ar    1  UNL1        0.0366
     21 C         140.8280  142.2007  170.4490 C.ar    1  UNL1        0.1334
     22 O         139.9964  142.7123  171.5877 O.3     1  UNL1       -0.5055
     23 C         140.3506  142.3685  169.0370 C.ar    1  UNL1        0.0340
     24 H         140.2947  142.6075  172.4698 H       1  UNL1        0.2922
@<TRIPOS>BOND
     1     1     2    1
     2     2     3    2
     3     2     4   am
     4     4     5    1
     5     5     6    2
     6     6     9    1
     7     9    10   ar
     8    10    11   ar
     9    11    12    1
    10    11    13   ar
    11    13    14   ar
    12    14    15   ar
    13    15    16    1
    14     6     7    1
    15     7     8    1
    16     8    17    1
    17    17    18   ar
    18    18    19   ar
    19    19    20   ar
    20    20    21   ar
    21    21    22    1
    22    21    23   ar
    23     8     4    1
    24    23    17   ar
    25    15     9   ar
    26    22    24    1
@<TRIPOS>MOLECULE
*****
 24 26 0 0 0
SMALL
GASTEIGER

@<TRIPOS>ATOM
      1 C         143.9750  143.2788  162.3455 C.3     1  UNL1        0.0966
      2 C         144.3048  142.6444  163.6641 C.2     1  UNL1        0.2451
      3 O         145.7145  142.2297  163.9652 O.2     1  UNL1       -0.2731
      4 N         143.2249  142.4247  164.6817 N.am    1  UNL1       -0.1782
      5 N         143.4026  141.8056  166.0364 N.2     1  UNL1       -0.1797
      6 C         142.0652  141.7839  166.7152 C.2     1  UNL1        0.0808
      7 C         141.0608  142.3896  165.7801 C.3     1  UNL1        0.0738
      8 C         141.7775  142.7857  164.5234 C.3     1  UNL1        0.1273
      9 C         141.7819  141.2501  168.0881 C.ar    1  UNL1        0.0448
     10 C         142.3251  139.9141  168.5003 C.ar    1  UNL1        0.0331
     11 C         142.0418  139.3804  169.8731 C.ar    1  UNL1        0.1403
     12 F         142.5850  138.0443  170.2853 F       1  UNL1       -0.2042
     13 C         141.2152  140.1827  170.8339 C.ar    1  UNL1        0.0319
     14 C         140.6720  141.5187  170.4218 C.ar    1  UNL1        0.0320
     15 C         140.9553  142.0524  169.0489 C.ar    1  UNL1        0.1414
     16 F         140.4121  143.3885  168.6367 F       1  UNL1       -0.2041
     17 C         141.1560  143.4296  163.3196 C.ar    1  UNL1        0.0011
     18 C         140.7694  142.5922  162.1367 C.ar    1  UNL1       -0.0024
     19 C         140.1480  143.2362  160.9329 C.ar    1  UNL1        0.0028
     20 C         139.9131  144.7174  160.9120 C.ar    1  UNL1        0.0366
     21 C         140.2997  145.5549  162.0950 C.ar    1  UNL1        0.1334
     22 O         140.0649  147.0363  162.0741 O.3     1  UNL1       -0.5055
     23 C         140.9212  144.9109  163.2987 C.ar    1  UNL1        0.0340
     24 H         139.6766  147.4385  161.3221 H       1  UNL1        0.2922
@<TRIPOS>BOND
     1     1     2    1
     2     2     3    2
     3     2     4   am
     4     4     5    1
     5     5     6    2
     6     6     9    1
     7     9    10   ar
     8    10    11   ar
     9    11    12    1
    10    11    13   ar
    11    13    14   ar
    12    14    15   ar
    13    15    16    1
    14     6     7    1
    15     7     8    1
    16     8    17    1
    17    17    18   ar
    18    18    19   ar
    19    19    20   ar
    20    20    21   ar
    21    21    22    1
    22    21    23   ar
    23     8     4    1
    24    23    17   ar
    25    15     9   ar
    26    22    24    1
@<TRIPOS>MOLECULE
*****
 24 26 0 0 0
SMALL
GASTEIGER

@<TRIPOS>ATOM
      1 C         137.9979  142.2630  162.5142 C.3     1  UNL1        0.0966
      2 C         138.3711  142.8958  163.8220 C.2     1  UNL1        0.2451
      3 O         137.8710  144.2688  164.1607 O.2     1  UNL1       -0.2731
      4 N         139.2445  142.1556  164.7912 N.am    1  UNL1       -0.1782
      5 N         139.6985  142.6573  166.1298 N.2     1  UNL1       -0.1797
      6 C         140.5518  141.5955  166.7579 C.2     1  UNL1        0.0808
      7 C         140.6251  140.4374  165.8073 C.3     1  UNL1        0.0738
      8 C         139.8172  140.7835  164.5918 C.3     1  UNL1        0.1273
      9 C         141.2153  141.6773  168.1007 C.ar    1  UNL1        0.0448
     10 C         142.6360  142.1465  168.2080 C.ar    1  UNL1        0.0331
     11 C         143.2994  142.2283  169.5507 C.ar    1  UNL1        0.1403
     12 F         144.7201  142.6975  169.6580 F       1  UNL1       -0.2042
     13 C         142.5421  141.8410  170.7863 C.ar    1  UNL1        0.0319
     14 C         141.1215  141.3718  170.6790 C.ar    1  UNL1        0.0320
     15 C         140.4581  141.2900  169.3362 C.ar    1  UNL1        0.1414
     16 F         139.0373  140.8208  169.2289 F       1  UNL1       -0.2041
     17 C         139.6170  139.9109  163.3883 C.ar    1  UNL1        0.0011
     18 C         138.4608  138.9567  163.3378 C.ar    1  UNL1       -0.0024
     19 C         138.2606  138.0840  162.1342 C.ar    1  UNL1        0.0028
     20 C         139.2166  138.1657  160.9814 C.ar    1  UNL1        0.0366
     21 C         140.3729  139.1200  161.0319 C.ar    1  UNL1        0.1334
     22 O         141.3290  139.2016  159.8789 O.3     1  UNL1       -0.5055
     23 C         140.5730  139.9925  162.2354 C.ar    1  UNL1        0.0340
     24 H         141.2039  138.6565  159.1271 H       1  UNL1        0.2922
@<TRIPOS>BOND
     1     1     2    1
     2     2     3    2
     3     2     4   am
     4     4     5    1
     5     5     6    2
     6     6     9    1
     7     9    10   ar
     8    10    11   ar
     9    11    12    1
    10    11    13   ar
    11    13    14   ar
    12    14    15   ar
    13    15    16    1
    14     6     7    1
    15     7     8    1
    16     8    17    1
    17    17    18   ar
    18    18    19   ar
    19    19    20   ar
    20    20    21   ar
    21    21    22    1
    22    21    23   ar
    23     8     4    1
    24    23    17   ar
    25    15     9   ar
    26    22    24    1
