@<TRIPOS>MOLECULE
*****
 32 36 0 0 0
SMALL
GASTEIGER

@<TRIPOS>ATOM
      1 N         144.9496  141.6683  163.1676 N.3     1  UNL1       -0.2704
      2 C         144.8231  142.2654  161.7974 C.3     1  UNL1        0.0723
      3 C         144.2376  141.4567  160.6781 C.3     1  UNL1        0.0207
      4 C         143.7787  140.0508  160.9288 C.3     1  UNL1        0.0392
      5 C         143.9052  139.4536  162.2990 C.3     1  UNL1        0.0207
      6 C         144.4906  140.2624  163.4185 C.3     1  UNL1        0.0723
      7 C         143.5004  140.2966  159.4755 C.3     1  UNL1        0.0938
      8 N         142.9507  138.9070  159.3457 N.pl3   1  UNL1       -0.2918
      9 C         143.2290  138.6612  160.7990 C.3     1  UNL1        0.0938
     10 C         142.3653  138.0982  158.2262 C.ar    1  UNL1        0.1517
     11 C         140.9072  138.2200  157.8959 C.ar    1  UNL1        0.0410
     12 C         140.3217  137.4112  156.7763 C.ar    1  UNL1        0.0651
     13 C         141.1944  136.4807  155.9873 C.ar    1  UNL1        0.2766
     14 O         140.6091  135.6719  154.8678 O.2     1  UNL1       -0.2655
     15 N         142.6525  136.3590  156.3177 N.ar    1  UNL1       -0.2134
     16 C         143.5253  135.4285  155.5286 C.3     1  UNL1        0.1571
     17 N         143.2379  137.1677  157.4372 N.ar    1  UNL1       -0.1517
     18 C         145.5350  142.4770  164.2871 C.3     1  UNL1        0.1063
     19 C         144.6822  143.4687  165.0216 C.3     1  UNL1        0.1483
     20 O         145.2427  144.2158  166.1954 O.3     1  UNL1       -0.3786
     21 H         144.5659  144.8119  166.5523 H       1  UNL1        0.2108
     22 C         142.4496  141.8248  166.1676 C.3     1  UNL1        0.0306
     23 C         142.1526  142.8912  165.1553 C.ar    1  UNL1       -0.0238
     24 C         143.2689  143.7132  164.5823 C.ar    1  UNL1        0.0015
     25 C         142.9720  144.7796  163.5702 C.ar    1  UNL1       -0.0020
     26 C         141.5588  145.0241  163.1309 C.ar    1  UNL1        0.0060
     27 C         140.4425  144.2022  163.7038 C.ar    1  UNL1        0.0748
     28 C         140.7394  143.1358  164.7161 C.ar    1  UNL1        0.0233
     29 C         139.4422  142.4892  165.1023 C.3     1  UNL1        0.2352
     30 O         138.3435  143.1560  164.3288 O.3     1  UNL1       -0.4404
     31 C         138.9617  144.2147  163.4645 C.2     1  UNL1        0.3413
     32 O         138.2280  145.1259  162.5257 O.2     1  UNL1       -0.2449
@<TRIPOS>BOND
     1    22    23    1
     2    23    24   ar
     3    24    19    1
     4    19    20    1
     5    19    18    1
     6    18     1    1
     7     1     2    1
     8     2     3    1
     9     3     4    1
    10     4     5    1
    11     5     6    1
    12     4     7    1
    13     7     8    1
    14     8    10    1
    15    10    11   ar
    16    11    12   ar
    17    12    13   ar
    18    13    14    2
    19    13    15   ar
    20    15    16    1
    21    15    17   ar
    22     8     9    1
    23    24    25   ar
    24    25    26   ar
    25    26    27   ar
    26    27    28   ar
    27    28    29    1
    28    29    30    1
    29    30    31    1
    30    31    32    2
    31    28    23   ar
    32     6     1    1
    33    17    10   ar
    34    31    27    1
    35     9     4    1
    36    20    21    1
@<TRIPOS>MOLECULE
*****
 32 36 0 0 0
SMALL
GASTEIGER

@<TRIPOS>ATOM
      1 N         143.0453  138.3103  162.1274 N.3     1  UNL1       -0.2704
      2 C         143.9915  139.2331  162.8366 C.3     1  UNL1        0.0723
      3 C         143.6508  139.7518  164.2022 C.3     1  UNL1        0.0207
      4 C         142.3641  139.3476  164.8586 C.3     1  UNL1        0.0392
      5 C         141.4179  138.4247  164.1494 C.3     1  UNL1        0.0207
      6 C         141.7584  137.9060  162.7837 C.3     1  UNL1        0.0723
      7 C         143.0348  140.2561  165.8459 C.3     1  UNL1        0.0938
      8 N         141.8823  140.0811  166.7899 N.pl3   1  UNL1       -0.2918
      9 C         141.2116  139.1725  165.8026 C.3     1  UNL1        0.0938
     10 C         141.5418  140.5998  168.1555 C.ar    1  UNL1        0.1517
     11 C         141.6002  139.6837  169.3419 C.ar    1  UNL1        0.0410
     12 C         141.2596  140.2024  170.7076 C.ar    1  UNL1        0.0651
     13 C         140.8606  141.6372  170.8869 C.ar    1  UNL1        0.2766
     14 O         140.5200  142.1560  172.2524 O.2     1  UNL1       -0.2655
     15 N         140.8022  142.5532  169.7005 N.ar    1  UNL1       -0.2134
     16 C         140.4031  143.9881  169.8797 C.3     1  UNL1        0.1571
     17 N         141.1427  142.0346  168.3348 N.ar    1  UNL1       -0.1517
     18 C         143.3859  137.7916  160.7617 C.3     1  UNL1        0.1063
     19 C         142.8804  138.5029  159.5417 C.3     1  UNL1        0.1483
     20 O         143.1321  137.9272  158.1796 O.3     1  UNL1       -0.3786
     21 H         142.7419  138.5066  157.5066 H       1  UNL1        0.2108
     22 C         139.8810  138.4801  159.6014 C.3     1  UNL1        0.0306
     23 C         140.6235  139.7787  159.7136 C.ar    1  UNL1       -0.0238
     24 C         142.1233  139.7901  159.6838 C.ar    1  UNL1        0.0015
     25 C         142.8658  141.0885  159.7960 C.ar    1  UNL1       -0.0020
     26 C         142.1087  142.3756  159.9380 C.ar    1  UNL1        0.0060
     27 C         140.6090  142.3642  159.9679 C.ar    1  UNL1        0.0748
     28 C         139.8665  141.0658  159.8557 C.ar    1  UNL1        0.0233
     29 C         138.3978  141.3649  159.9154 C.3     1  UNL1        0.2352
     30 O         138.2327  142.8483  160.0645 O.3     1  UNL1       -0.4404
     31 C         139.5993  143.4659  160.0969 C.2     1  UNL1        0.3413
     32 O         139.9028  144.9285  160.2343 O.2     1  UNL1       -0.2449
@<TRIPOS>BOND
     1    22    23    1
     2    23    24   ar
     3    24    19    1
     4    19    20    1
     5    19    18    1
     6    18     1    1
     7     1     2    1
     8     2     3    1
     9     3     4    1
    10     4     5    1
    11     5     6    1
    12     4     7    1
    13     7     8    1
    14     8    10    1
    15    10    11   ar
    16    11    12   ar
    17    12    13   ar
    18    13    14    2
    19    13    15   ar
    20    15    16    1
    21    15    17   ar
    22     8     9    1
    23    24    25   ar
    24    25    26   ar
    25    26    27   ar
    26    27    28   ar
    27    28    29    1
    28    29    30    1
    29    30    31    1
    30    31    32    2
    31    28    23   ar
    32     6     1    1
    33    17    10   ar
    34    31    27    1
    35     9     4    1
    36    20    21    1
@<TRIPOS>MOLECULE
*****
 32 36 0 0 0
SMALL
GASTEIGER

@<TRIPOS>ATOM
      1 N         139.5639  137.6435  163.8116 N.3     1  UNL1       -0.2704
      2 C         141.0520  137.4593  163.7709 C.3     1  UNL1        0.0723
      3 C         141.7972  137.6574  162.4844 C.3     1  UNL1        0.0207
      4 C         141.0545  138.0398  161.2385 C.3     1  UNL1        0.0392
      5 C         139.5664  138.2240  161.2792 C.3     1  UNL1        0.0207
      6 C         138.8210  138.0258  162.5657 C.3     1  UNL1        0.0723
      7 C         142.4923  137.9486  160.8208 C.3     1  UNL1        0.0938
      8 N         142.1086  138.3200  159.4191 N.pl3   1  UNL1       -0.2918
      9 C         140.6708  138.4112  159.8368 C.3     1  UNL1        0.0938
     10 C         142.8539  138.5181  158.1325 C.ar    1  UNL1        0.1517
     11 C         142.7243  137.5116  157.0280 C.ar    1  UNL1        0.0410
     12 C         143.4698  137.7097  155.7414 C.ar    1  UNL1        0.0651
     13 C         144.3447  138.9144  155.5594 C.ar    1  UNL1        0.2766
     14 O         145.0901  139.1126  154.2730 O.2     1  UNL1       -0.2655
     15 N         144.4743  139.9210  156.6641 N.ar    1  UNL1       -0.2134
     16 C         145.3493  141.1257  156.4822 C.3     1  UNL1        0.1571
     17 N         143.7289  139.7228  157.9506 N.ar    1  UNL1       -0.1517
     18 C         138.8185  137.4454  165.0981 C.3     1  UNL1        0.1063
     19 C         138.4789  138.6268  165.9577 C.3     1  UNL1        0.1483
     20 O         137.8266  138.4203  167.2926 O.3     1  UNL1       -0.3786
     21 H         137.6765  139.2802  167.7156 H       1  UNL1        0.2108
     22 C         141.1443  139.8582  166.5738 C.3     1  UNL1        0.0306
     23 C         140.1244  140.6305  165.7905 C.ar    1  UNL1       -0.0238
     24 C         138.7917  140.0148  165.4825 C.ar    1  UNL1        0.0015
     25 C         137.7718  140.7870  164.6993 C.ar    1  UNL1       -0.0020
     26 C         138.0845  142.1749  164.2241 C.ar    1  UNL1        0.0060
     27 C         139.4172  142.7906  164.5321 C.ar    1  UNL1        0.0748
     28 C         140.4371  142.0184  165.3153 C.ar    1  UNL1        0.0233
     29 C         141.6558  142.8799  165.4656 C.3     1  UNL1        0.2352
     30 O         141.3891  144.1846  164.7752 O.3     1  UNL1       -0.4404
     31 C         140.0055  144.1294  164.1982 C.2     1  UNL1        0.3413
     32 O         139.3291  145.2213  163.4235 O.2     1  UNL1       -0.2449
@<TRIPOS>BOND
     1    22    23    1
     2    23    24   ar
     3    24    19    1
     4    19    20    1
     5    19    18    1
     6    18     1    1
     7     1     2    1
     8     2     3    1
     9     3     4    1
    10     4     5    1
    11     5     6    1
    12     4     7    1
    13     7     8    1
    14     8    10    1
    15    10    11   ar
    16    11    12   ar
    17    12    13   ar
    18    13    14    2
    19    13    15   ar
    20    15    16    1
    21    15    17   ar
    22     8     9    1
    23    24    25   ar
    24    25    26   ar
    25    26    27   ar
    26    27    28   ar
    27    28    29    1
    28    29    30    1
    29    30    31    1
    30    31    32    2
    31    28    23   ar
    32     6     1    1
    33    17    10   ar
    34    31    27    1
    35     9     4    1
    36    20    21    1
@<TRIPOS>MOLECULE
*****
 32 36 0 0 0
SMALL
GASTEIGER

@<TRIPOS>ATOM
      1 N         139.2115  139.5018  161.5207 N.3     1  UNL1       -0.2704
      2 C         139.2475  140.7810  160.7383 C.3     1  UNL1        0.0723
      3 C         140.3728  141.0438  159.7820 C.3     1  UNL1        0.0207
      4 C         141.4621  140.0273  159.6081 C.3     1  UNL1        0.0392
      5 C         141.4261  138.7481  160.3905 C.3     1  UNL1        0.0207
      6 C         140.3008  138.4852  161.3468 C.3     1  UNL1        0.0723
      7 C         141.8279  141.1504  158.6835 C.3     1  UNL1        0.0938
      8 N         143.0536  140.3990  158.2557 N.pl3   1  UNL1       -0.2918
      9 C         142.6878  139.2759  159.1803 C.3     1  UNL1        0.0938
     10 C         144.1789  140.6618  157.2993 C.ar    1  UNL1        0.1517
     11 C         144.2333  139.9364  155.9875 C.ar    1  UNL1        0.0410
     12 C         145.3587  140.1993  155.0311 C.ar    1  UNL1        0.0651
     13 C         146.4296  141.1875  155.3866 C.ar    1  UNL1        0.2766
     14 O         147.5550  141.4504  154.4304 O.2     1  UNL1       -0.2655
     15 N         146.3752  141.9129  156.6985 N.ar    1  UNL1       -0.2134
     16 C         147.4462  142.9012  157.0541 C.3     1  UNL1        0.1571
     17 N         145.2499  141.6501  157.6548 N.ar    1  UNL1       -0.1517
     18 C         138.0862  139.2389  162.4770 C.3     1  UNL1        0.1063
     19 C         137.7051  140.2772  163.4904 C.3     1  UNL1        0.1483
     20 O         136.6997  141.3337  163.1400 O.3     1  UNL1       -0.3786
     21 H         136.5687  141.9205  163.9012 H       1  UNL1        0.2108
     22 C         139.6917  142.3898  164.2591 C.3     1  UNL1        0.0306
     23 C         139.3228  141.3152  165.2385 C.ar    1  UNL1       -0.0238
     24 C         138.3296  140.2588  164.8542 C.ar    1  UNL1        0.0015
     25 C         137.9607  139.1843  165.8335 C.ar    1  UNL1       -0.0020
     26 C         138.5851  139.1659  167.1973 C.ar    1  UNL1        0.0060
     27 C         139.5783  140.2222  167.5816 C.ar    1  UNL1        0.0748
     28 C         139.9472  141.2968  166.6023 C.ar    1  UNL1        0.0233
     29 C         140.9494  142.1988  167.2595 C.3     1  UNL1        0.2352
     30 O         141.1999  141.6817  168.6450 O.3     1  UNL1       -0.4404
     31 C         140.3526  140.4601  168.8442 C.2     1  UNL1        0.3413
     32 O         140.2904  139.6233  170.0875 O.2     1  UNL1       -0.2449
@<TRIPOS>BOND
     1    22    23    1
     2    23    24   ar
     3    24    19    1
     4    19    20    1
     5    19    18    1
     6    18     1    1
     7     1     2    1
     8     2     3    1
     9     3     4    1
    10     4     5    1
    11     5     6    1
    12     4     7    1
    13     7     8    1
    14     8    10    1
    15    10    11   ar
    16    11    12   ar
    17    12    13   ar
    18    13    14    2
    19    13    15   ar
    20    15    16    1
    21    15    17   ar
    22     8     9    1
    23    24    25   ar
    24    25    26   ar
    25    26    27   ar
    26    27    28   ar
    27    28    29    1
    28    29    30    1
    29    30    31    1
    30    31    32    2
    31    28    23   ar
    32     6     1    1
    33    17    10   ar
    34    31    27    1
    35     9     4    1
    36    20    21    1
@<TRIPOS>MOLECULE
*****
 32 36 0 0 0
SMALL
GASTEIGER

@<TRIPOS>ATOM
      1 N         143.0585  138.5757  165.2035 N.3     1  UNL1       -0.2704
      2 C         141.8179  138.0014  164.5861 C.3     1  UNL1        0.0723
      3 C         141.7160  137.8648  163.0958 C.3     1  UNL1        0.0207
      4 C         142.8547  138.3024  162.2229 C.3     1  UNL1        0.0392
      5 C         144.0953  138.8766  162.8403 C.3     1  UNL1        0.0207
      6 C         144.1972  139.0133  164.3306 C.3     1  UNL1        0.0723
      7 C         141.8113  137.7927  161.2734 C.3     1  UNL1        0.0938
      8 N         142.7106  138.1091  160.1153 N.pl3   1  UNL1       -0.2918
      9 C         143.7540  138.6189  161.0649 C.3     1  UNL1        0.0938
     10 C         142.6087  137.9725  158.6251 C.ar    1  UNL1        0.1517
     11 C         141.9303  139.0399  157.8187 C.ar    1  UNL1        0.0410
     12 C         141.8283  138.9032  156.3283 C.ar    1  UNL1        0.0651
     13 C         142.4048  137.6991  155.6444 C.ar    1  UNL1        0.2766
     14 O         142.3029  137.5623  154.1542 O.2     1  UNL1       -0.2655
     15 N         143.0832  136.6317  156.4509 N.ar    1  UNL1       -0.2134
     16 C         143.6598  135.4274  155.7671 C.3     1  UNL1        0.1571
     17 N         143.1852  136.7683  157.9412 N.ar    1  UNL1       -0.1517
     18 C         143.1604  138.7124  166.6937 C.3     1  UNL1        0.1063
     19 C         142.8480  140.0247  167.3496 C.3     1  UNL1        0.1483
     20 O         142.9786  140.1697  168.8369 O.3     1  UNL1       -0.3786
     21 H         142.7409  141.0738  169.0957 H       1  UNL1        0.2108
     22 C         139.9228  140.5727  166.9715 C.3     1  UNL1        0.0306
     23 C         140.9423  141.4660  166.3292 C.ar    1  UNL1       -0.0238
     24 C         142.4050  141.1920  166.5182 C.ar    1  UNL1        0.0015
     25 C         143.4245  142.0853  165.8759 C.ar    1  UNL1       -0.0020
     26 C         142.9815  143.2526  165.0446 C.ar    1  UNL1        0.0060
     27 C         141.5190  143.5266  164.8555 C.ar    1  UNL1        0.0748
     28 C         140.4994  142.6333  165.4978 C.ar    1  UNL1        0.0233
     29 C         139.1379  143.1487  165.1360 C.3     1  UNL1        0.2352
     30 O         139.3161  144.3605  164.2701 O.3     1  UNL1       -0.4404
     31 C         140.7877  144.5941  164.0967 C.2     1  UNL1        0.3413
     32 O         141.4173  145.7008  163.3038 O.2     1  UNL1       -0.2449
@<TRIPOS>BOND
     1    22    23    1
     2    23    24   ar
     3    24    19    1
     4    19    20    1
     5    19    18    1
     6    18     1    1
     7     1     2    1
     8     2     3    1
     9     3     4    1
    10     4     5    1
    11     5     6    1
    12     4     7    1
    13     7     8    1
    14     8    10    1
    15    10    11   ar
    16    11    12   ar
    17    12    13   ar
    18    13    14    2
    19    13    15   ar
    20    15    16    1
    21    15    17   ar
    22     8     9    1
    23    24    25   ar
    24    25    26   ar
    25    26    27   ar
    26    27    28   ar
    27    28    29    1
    28    29    30    1
    29    30    31    1
    30    31    32    2
    31    28    23   ar
    32     6     1    1
    33    17    10   ar
    34    31    27    1
    35     9     4    1
    36    20    21    1
@<TRIPOS>MOLECULE
*****
 32 36 0 0 0
SMALL
GASTEIGER

@<TRIPOS>ATOM
      1 N         139.4680  138.5236  161.6146 N.3     1  UNL1       -0.2704
      2 C         140.7971  138.4119  162.3009 C.3     1  UNL1        0.0723
      3 C         140.9515  138.8811  163.7172 C.3     1  UNL1        0.0207
      4 C         139.7770  139.4622  164.4471 C.3     1  UNL1        0.0392
      5 C         138.4479  139.5740  163.7608 C.3     1  UNL1        0.0207
      6 C         138.2934  139.1047  162.3445 C.3     1  UNL1        0.0723
      7 C         140.9083  139.5112  165.4309 C.3     1  UNL1        0.0938
      8 N         139.9955  140.1259  166.4501 N.pl3   1  UNL1       -0.2918
      9 C         138.8641  140.0769  165.4664 C.3     1  UNL1        0.0938
     10 C         140.1500  140.5951  167.8664 C.ar    1  UNL1        0.1517
     11 C         139.2183  140.0924  168.9290 C.ar    1  UNL1        0.0410
     12 C         139.3729  140.5617  170.3454 C.ar    1  UNL1        0.0651
     13 C         140.4592  141.5337  170.6991 C.ar    1  UNL1        0.2766
     14 O         140.6138  142.0030  172.1153 O.2     1  UNL1       -0.2655
     15 N         141.3909  142.0364  169.6364 N.ar    1  UNL1       -0.2134
     16 C         142.4772  143.0085  169.9900 C.3     1  UNL1        0.1571
     17 N         141.2363  141.5671  168.2201 N.ar    1  UNL1       -0.1517
     18 C         139.3134  138.0544  160.1983 C.3     1  UNL1        0.1063
     19 C         139.4270  139.0331  159.0673 C.3     1  UNL1        0.1483
     20 O         139.3348  138.5541  157.6488 O.3     1  UNL1       -0.3786
     21 H         139.4273  139.3086  157.0462 H       1  UNL1        0.2108
     22 C         142.2063  140.1446  159.2689 C.3     1  UNL1        0.0306
     23 C         141.0224  141.0467  159.4556 C.ar    1  UNL1       -0.0238
     24 C         139.6327  140.4910  159.3548 C.ar    1  UNL1        0.0015
     25 C         138.4490  141.3929  159.5415 C.ar    1  UNL1       -0.0020
     26 C         138.6547  142.8507  159.8290 C.ar    1  UNL1        0.0060
     27 C         140.0443  143.4064  159.9298 C.ar    1  UNL1        0.0748
     28 C         141.2281  142.5044  159.7431 C.ar    1  UNL1        0.0233
     29 C         142.4700  143.3312  159.8986 C.3     1  UNL1        0.2352
     30 O         142.0536  144.7442  160.1814 O.3     1  UNL1       -0.4404
     31 C         140.5544  144.7907  160.2007 C.2     1  UNL1        0.3413
     32 O         139.7132  146.0078  160.4475 O.2     1  UNL1       -0.2449
@<TRIPOS>BOND
     1    22    23    1
     2    23    24   ar
     3    24    19    1
     4    19    20    1
     5    19    18    1
     6    18     1    1
     7     1     2    1
     8     2     3    1
     9     3     4    1
    10     4     5    1
    11     5     6    1
    12     4     7    1
    13     7     8    1
    14     8    10    1
    15    10    11   ar
    16    11    12   ar
    17    12    13   ar
    18    13    14    2
    19    13    15   ar
    20    15    16    1
    21    15    17   ar
    22     8     9    1
    23    24    25   ar
    24    25    26   ar
    25    26    27   ar
    26    27    28   ar
    27    28    29    1
    28    29    30    1
    29    30    31    1
    30    31    32    2
    31    28    23   ar
    32     6     1    1
    33    17    10   ar
    34    31    27    1
    35     9     4    1
    36    20    21    1
@<TRIPOS>MOLECULE
*****
 32 36 0 0 0
SMALL
GASTEIGER

@<TRIPOS>ATOM
      1 N         141.8616  137.9316  157.5420 N.3     1  UNL1       -0.2704
      2 C         142.8351  137.8302  158.6786 C.3     1  UNL1        0.0723
      3 C         142.3603  138.0056  160.0906 C.3     1  UNL1        0.0207
      4 C         140.9120  138.2823  160.3660 C.3     1  UNL1        0.0392
      5 C         139.9385  138.3837  159.2293 C.3     1  UNL1        0.0207
      6 C         140.4132  138.2084  157.8173 C.3     1  UNL1        0.0723
      7 C         141.5650  138.2520  161.7161 C.3     1  UNL1        0.0938
      8 N         140.2405  138.5304  162.3629 N.pl3   1  UNL1       -0.2918
      9 C         139.5876  138.5607  161.0128 C.3     1  UNL1        0.0938
     10 C         139.7658  138.7057  163.7749 C.ar    1  UNL1        0.1517
     11 C         138.9496  137.6316  164.4306 C.ar    1  UNL1        0.0410
     12 C         138.4748  137.8069  165.8428 C.ar    1  UNL1        0.0651
     13 C         138.8163  139.0565  166.5991 C.ar    1  UNL1        0.2766
     14 O         138.3416  139.2319  168.0111 O.2     1  UNL1       -0.2655
     15 N         139.6325  140.1306  165.9433 N.ar    1  UNL1       -0.2134
     16 C         139.9741  141.3803  166.6996 C.3     1  UNL1        0.1571
     17 N         140.1073  139.9553  164.5313 N.ar    1  UNL1       -0.1517
     18 C         142.3363  137.7562  156.1300 C.3     1  UNL1        0.1063
     19 C         143.4577  136.8068  155.8282 C.3     1  UNL1        0.1483
     20 O         144.8168  137.3376  155.4803 O.3     1  UNL1       -0.3786
     21 H         145.4208  136.5967  155.3153 H       1  UNL1        0.2108
     22 C         142.2251  135.4115  153.4757 C.3     1  UNL1        0.0306
     23 C         142.6036  134.6287  154.6980 C.ar    1  UNL1       -0.0238
     24 C         143.2199  135.3264  155.8743 C.ar    1  UNL1        0.0015
     25 C         143.5984  134.5437  157.0966 C.ar    1  UNL1       -0.0020
     26 C         143.3606  133.0634  157.1428 C.ar    1  UNL1        0.0060
     27 C         142.7444  132.3658  155.9666 C.ar    1  UNL1        0.0748
     28 C         142.3659  133.1484  154.7442 C.ar    1  UNL1        0.0233
     29 C         141.7800  132.1944  153.7459 C.3     1  UNL1        0.2352
     30 O         141.7964  130.8221  154.3513 O.3     1  UNL1       -0.4404
     31 C         142.3924  130.9280  155.7237 C.2     1  UNL1        0.3413
     32 O         142.6000  129.7950  156.6846 O.2     1  UNL1       -0.2449
@<TRIPOS>BOND
     1    22    23    1
     2    23    24   ar
     3    24    19    1
     4    19    20    1
     5    19    18    1
     6    18     1    1
     7     1     2    1
     8     2     3    1
     9     3     4    1
    10     4     5    1
    11     5     6    1
    12     4     7    1
    13     7     8    1
    14     8    10    1
    15    10    11   ar
    16    11    12   ar
    17    12    13   ar
    18    13    14    2
    19    13    15   ar
    20    15    16    1
    21    15    17   ar
    22     8     9    1
    23    24    25   ar
    24    25    26   ar
    25    26    27   ar
    26    27    28   ar
    27    28    29    1
    28    29    30    1
    29    30    31    1
    30    31    32    2
    31    28    23   ar
    32     6     1    1
    33    17    10   ar
    34    31    27    1
    35     9     4    1
    36    20    21    1
@<TRIPOS>MOLECULE
*****
 32 36 0 0 0
SMALL
GASTEIGER

@<TRIPOS>ATOM
      1 N         143.6129  140.3267  163.8724 N.3     1  UNL1       -0.2704
      2 C         144.0169  141.0176  162.6037 C.3     1  UNL1        0.0723
      3 C         143.7176  140.3847  161.2771 C.3     1  UNL1        0.0207
      4 C         143.0143  139.0611  161.2192 C.3     1  UNL1        0.0392
      5 C         142.6103  138.3703  162.4878 C.3     1  UNL1        0.0207
      6 C         142.9096  139.0030  163.8145 C.3     1  UNL1        0.0723
      7 C         143.2547  139.4360  159.7868 C.3     1  UNL1        0.0938
      8 N         142.5910  138.1661  159.3430 N.pl3   1  UNL1       -0.2918
      9 C         142.3506  137.7912  160.7754 C.3     1  UNL1        0.0938
     10 C         142.2917  137.5334  158.0164 C.ar    1  UNL1        0.1517
     11 C         141.1062  137.9893  157.2183 C.ar    1  UNL1        0.0410
     12 C         140.8069  137.3565  155.8916 C.ar    1  UNL1        0.0651
     13 C         141.6931  136.2678  155.3630 C.ar    1  UNL1        0.2766
     14 O         141.3939  135.6350  154.0364 O.2     1  UNL1       -0.2655
     15 N         142.8786  135.8119  156.1611 N.ar    1  UNL1       -0.2134
     16 C         143.7648  134.7232  155.6325 C.3     1  UNL1        0.1571
     17 N         143.1779  136.4447  157.4877 N.ar    1  UNL1       -0.1517
     18 C         143.9122  140.9595  165.1990 C.3     1  UNL1        0.1063
     19 C         142.9636  141.9649  165.7815 C.3     1  UNL1        0.1483
     20 O         142.9882  143.3856  165.3008 O.3     1  UNL1       -0.3786
     21 H         142.3170  143.8995  165.7764 H       1  UNL1        0.2108
     22 C         143.6103  142.4340  168.6732 C.3     1  UNL1        0.0306
     23 C         142.3136  141.7842  168.2905 C.ar    1  UNL1       -0.0238
     24 C         141.9902  141.5496  166.8447 C.ar    1  UNL1        0.0015
     25 C         140.6937  140.8998  166.4620 C.ar    1  UNL1       -0.0020
     26 C         139.7204  140.4845  167.5251 C.ar    1  UNL1        0.0060
     27 C         140.0437  140.7191  168.9709 C.ar    1  UNL1        0.0748
     28 C         141.3403  141.3689  169.3536 C.ar    1  UNL1        0.0233
     29 C         141.3842  141.4705  170.8495 C.3     1  UNL1        0.2352
     30 O         140.1146  140.8834  171.3913 O.3     1  UNL1       -0.4404
     31 C         139.2861  140.4190  170.2303 C.2     1  UNL1        0.3413
     32 O         137.9370  139.7688  170.3140 O.2     1  UNL1       -0.2449
@<TRIPOS>BOND
     1    22    23    1
     2    23    24   ar
     3    24    19    1
     4    19    20    1
     5    19    18    1
     6    18     1    1
     7     1     2    1
     8     2     3    1
     9     3     4    1
    10     4     5    1
    11     5     6    1
    12     4     7    1
    13     7     8    1
    14     8    10    1
    15    10    11   ar
    16    11    12   ar
    17    12    13   ar
    18    13    14    2
    19    13    15   ar
    20    15    16    1
    21    15    17   ar
    22     8     9    1
    23    24    25   ar
    24    25    26   ar
    25    26    27   ar
    26    27    28   ar
    27    28    29    1
    28    29    30    1
    29    30    31    1
    30    31    32    2
    31    28    23   ar
    32     6     1    1
    33    17    10   ar
    34    31    27    1
    35     9     4    1
    36    20    21    1
@<TRIPOS>MOLECULE
*****
 32 36 0 0 0
SMALL
GASTEIGER

@<TRIPOS>ATOM
      1 N         139.9952  138.0699  164.1954 N.3     1  UNL1       -0.2704
      2 C         139.1563  138.3050  162.9743 C.3     1  UNL1        0.0723
      3 C         139.8019  138.3683  161.6219 C.3     1  UNL1        0.0207
      4 C         141.2862  138.1966  161.4904 C.3     1  UNL1        0.0392
      5 C         142.1250  137.9615  162.7115 C.3     1  UNL1        0.0207
      6 C         141.4796  137.8981  164.0641 C.3     1  UNL1        0.0723
      7 C         140.7942  138.4075  160.0892 C.3     1  UNL1        0.0938
      8 N         142.1991  138.2861  159.5777 N.pl3   1  UNL1       -0.2918
      9 C         142.6911  138.0752  160.9790 C.3     1  UNL1        0.0938
     10 C         142.8446  138.3495  158.2252 C.ar    1  UNL1        0.1517
     11 C         143.2982  139.6678  157.6716 C.ar    1  UNL1        0.0410
     12 C         143.9437  139.7311  156.3190 C.ar    1  UNL1        0.0651
     13 C         144.1356  138.4762  155.5200 C.ar    1  UNL1        0.2766
     14 O         144.7810  138.5394  154.1675 O.2     1  UNL1       -0.2655
     15 N         143.6819  137.1579  156.0737 N.ar    1  UNL1       -0.2134
     16 C         143.8738  135.9029  155.2748 C.3     1  UNL1        0.1571
     17 N         143.0365  137.0946  157.4262 N.ar    1  UNL1       -0.1517
     18 C         139.3497  138.0065  165.5480 C.3     1  UNL1        0.1063
     19 C         138.6308  139.2050  166.0927 C.3     1  UNL1        0.1483
     20 O         137.3860  139.7028  165.4199 O.3     1  UNL1       -0.3786
     21 H         137.0497  140.4786  165.8952 H       1  UNL1        0.2108
     22 C         140.8981  141.1533  165.8404 C.3     1  UNL1        0.0306
     23 C         140.2903  140.8798  167.1842 C.ar    1  UNL1       -0.0238
     24 C         139.1566  139.9057  167.3104 C.ar    1  UNL1        0.0015
     25 C         138.5488  139.6322  168.6541 C.ar    1  UNL1       -0.0020
     26 C         139.0746  140.3328  169.8718 C.ar    1  UNL1        0.0060
     27 C         140.2082  141.3069  169.7456 C.ar    1  UNL1        0.0748
     28 C         140.8161  141.5804  168.4019 C.ar    1  UNL1        0.0233
     29 C         141.9151  142.5845  168.5859 C.3     1  UNL1        0.2352
     30 O         141.9865  142.9316  170.0435 O.3     1  UNL1       -0.4404
     31 C         140.9316  142.1420  170.7602 C.2     1  UNL1        0.3413
     32 O         140.6496  142.1807  172.2330 O.2     1  UNL1       -0.2449
@<TRIPOS>BOND
     1    22    23    1
     2    23    24   ar
     3    24    19    1
     4    19    20    1
     5    19    18    1
     6    18     1    1
     7     1     2    1
     8     2     3    1
     9     3     4    1
    10     4     5    1
    11     5     6    1
    12     4     7    1
    13     7     8    1
    14     8    10    1
    15    10    11   ar
    16    11    12   ar
    17    12    13   ar
    18    13    14    2
    19    13    15   ar
    20    15    16    1
    21    15    17   ar
    22     8     9    1
    23    24    25   ar
    24    25    26   ar
    25    26    27   ar
    26    27    28   ar
    27    28    29    1
    28    29    30    1
    29    30    31    1
    30    31    32    2
    31    28    23   ar
    32     6     1    1
    33    17    10   ar
    34    31    27    1
    35     9     4    1
    36    20    21    1
